version 2
run General-0-20190605-09:05:43-10484
attr configname General
attr datetime 20190605-09:05:43
attr experiment General
attr inifile omnetpp.ini
attr iterationvars ""
attr iterationvarsf ""
attr measurement ""
attr network FloodingNetwork
attr processid 10484
attr repetition 0
attr replication #0
attr resultdir results
attr runnumber 0
attr seedset 0
param **.debug false
param **.coreDebug false
param *.playgroundSizeX 3000m
param *.playgroundSizeY 2500m
param *.playgroundSizeZ 50m
param *.annotations.draw true
param *.obstacles.debug true
param *.obstacles.obstacles "xmldoc(\"config.xml\", \"//AnalogueModel[@type='SimpleObstacleShadowing']/obstacles\")"
param *.world.useTorus false
param *.world.use2D false
param *.manager.updateInterval 0.1s
param *.manager.host "\"localhost\""
param *.manager.port 9999
param *.manager.moduleType "\"org.car2x.veins.nodes.Car\""
param *.manager.moduleName "\"node\""
param *.manager.autoShutdown true
param *.manager.margin 25
param *.manager.launchConfig "xmldoc(\"manhattan.launchd.xml\")"
param *.vehicleInserter.numVehicles 150
param *.connectionManager.sendDirect true
param *.connectionManager.maxInterfDist 100m
param *.connectionManager.drawMaxIntfDist false
param *.**.nic.mac1609_4.useServiceChannel true
param *.**.nic.mac1609_4.txPower 20mW
param *.**.nic.mac1609_4.bitrate 6Mbps
param *.**.nic.phy80211p.minPowerLevel -110dBm
param *.**.nic.phy80211p.useNoiseFloor true
param *.**.nic.phy80211p.noiseFloor -98dBm
param *.**.nic.phy80211p.decider "xmldoc(\"config.xml\")"
param *.**.nic.phy80211p.analogueModels "xmldoc(\"config.xml\")"
param *.**.nic.phy80211p.usePropagationDelay true
param *.**.nic.phy80211p.antenna "xmldoc(\"antenna.xml\", \"/root/Antenna[@id='monopole']\")"
param *.rsu.applType "\"FloodingRSU\""
param *.rsu.appl.headerLength 80bit
param *.rsu[*].appl.debug false
param *.rsu[*].appl.headerLength "88 bit"
param *.rsu[*].appl.dataLengthBits "512 bit"
param *.rsu[*].appl.sendBeacons false
param *.rsu[*].appl.dataOnSch true
param *.rsu[*].appl.sendData true
param *.rsu.nic.phy80211p.useNoiseFloor true
param *.rsu.nic.phy80211p.noiseFloor -98dBm
param *.rsu.nic.phy80211p.minPowerLevel -110dBm
param *.rsu.nic.phy80211p.analogueModels "xmldoc(\"config.xml\")"
param *.rsu.nic.phy80211p.decider "xmldoc(\"config.xml\")"
param *.rsu.nic.phy80211p.sensitivity -89dBm
param *.rsu.nic.mac1609_4.txPower 20mW
param *.rsu.mobility.x 1420
param *.rsu.mobility.y 1250
param *.rsu.mobility.z 1.895
param *.node[*].applType "\"MySimpleFlooding\""
param *.node[*].appl.debug false
param *.node[*].appl.headerLength "88 bit"
param *.node[*].appl.dataLengthBits "512 bit"
param *.node[*].appl.sendBeacons false
param *.node[*].appl.dataOnSch true
param *.node[*].appl.sendData true
param *.node[*].appl.beaconInterval 1s
param *.node[*].appl.beaconPriority 3
param *.node[*].appl.dataPriority 2
param *.node[*].appl.maxOffset 0.005s
param *.node.appl.dataOnSch false
param *.rsu.appl.dataOnSch false
param *.node[*].veinsmobilityType.debug false
param *.node[*].veinsmobility.x 0
param *.node[*].veinsmobility.y 0
param *.node[*].veinsmobility.z 1.895

scalar FloodingNetwork.node[128].appl generatedWSMs 0
scalar FloodingNetwork.node[128].appl receivedWSMs 0
scalar FloodingNetwork.node[128].appl generatedBSMs 0
scalar FloodingNetwork.node[128].appl receivedBSMs 0
scalar FloodingNetwork.node[128].appl generatedWSAs 0
scalar FloodingNetwork.node[128].appl receivedWSAs 0
scalar FloodingNetwork.node[128].appl #duplicates 0
scalar FloodingNetwork.node[128].appl #numSent 0
scalar FloodingNetwork.node[128].appl #pktDelay 0
scalar FloodingNetwork.node[128].nic.phy80211p busyTime 0
scalar FloodingNetwork.node[128].nic.mac1609_4 ReceivedUnicastPackets 0
scalar FloodingNetwork.node[128].nic.mac1609_4 ReceivedBroadcasts 0
scalar FloodingNetwork.node[128].nic.mac1609_4 SentPackets 0
scalar FloodingNetwork.node[128].nic.mac1609_4 SentAcknowledgements 0
scalar FloodingNetwork.node[128].nic.mac1609_4 SNIRLostPackets 0
scalar FloodingNetwork.node[128].nic.mac1609_4 RXTXLostPackets 0
scalar FloodingNetwork.node[128].nic.mac1609_4 TotalLostPackets 0
scalar FloodingNetwork.node[128].nic.mac1609_4 DroppedPacketsInMac 0
scalar FloodingNetwork.node[128].nic.mac1609_4 TooLittleTime 0
scalar FloodingNetwork.node[128].nic.mac1609_4 TimesIntoBackoff 0
scalar FloodingNetwork.node[128].nic.mac1609_4 SlotsBackoff 0
scalar FloodingNetwork.node[128].nic.mac1609_4 NumInternalContention 0
scalar FloodingNetwork.node[128].nic.mac1609_4 totalBusyTime 0
scalar FloodingNetwork.node[128].veinsmobility startTime 1.2
scalar FloodingNetwork.node[128].veinsmobility totalTime 136
scalar FloodingNetwork.node[128].veinsmobility stopTime 137.3
scalar FloodingNetwork.node[128].veinsmobility minSpeed 3.1759962209215
scalar FloodingNetwork.node[128].veinsmobility maxSpeed 15.159501683957
scalar FloodingNetwork.node[128].veinsmobility totalDistance 1467.6856166092
scalar FloodingNetwork.node[128].veinsmobility totalCO2Emission 383.94510466203
scalar FloodingNetwork.node[32].appl generatedWSMs 0
scalar FloodingNetwork.node[32].appl receivedWSMs 0
scalar FloodingNetwork.node[32].appl generatedBSMs 0
scalar FloodingNetwork.node[32].appl receivedBSMs 0
scalar FloodingNetwork.node[32].appl generatedWSAs 0
scalar FloodingNetwork.node[32].appl receivedWSAs 0
scalar FloodingNetwork.node[32].appl #duplicates 0
scalar FloodingNetwork.node[32].appl #numSent 0
scalar FloodingNetwork.node[32].appl #pktDelay 0
scalar FloodingNetwork.node[32].nic.phy80211p busyTime 0
scalar FloodingNetwork.node[32].nic.mac1609_4 ReceivedUnicastPackets 0
scalar FloodingNetwork.node[32].nic.mac1609_4 ReceivedBroadcasts 0
scalar FloodingNetwork.node[32].nic.mac1609_4 SentPackets 0
scalar FloodingNetwork.node[32].nic.mac1609_4 SentAcknowledgements 0
scalar FloodingNetwork.node[32].nic.mac1609_4 SNIRLostPackets 0
scalar FloodingNetwork.node[32].nic.mac1609_4 RXTXLostPackets 0
scalar FloodingNetwork.node[32].nic.mac1609_4 TotalLostPackets 0
scalar FloodingNetwork.node[32].nic.mac1609_4 DroppedPacketsInMac 0
scalar FloodingNetwork.node[32].nic.mac1609_4 TooLittleTime 0
scalar FloodingNetwork.node[32].nic.mac1609_4 TimesIntoBackoff 0
scalar FloodingNetwork.node[32].nic.mac1609_4 SlotsBackoff 0
scalar FloodingNetwork.node[32].nic.mac1609_4 NumInternalContention 0
scalar FloodingNetwork.node[32].nic.mac1609_4 totalBusyTime 0
scalar FloodingNetwork.node[32].veinsmobility startTime 1.2
scalar FloodingNetwork.node[32].veinsmobility totalTime 140.1
scalar FloodingNetwork.node[32].veinsmobility stopTime 141.4
scalar FloodingNetwork.node[32].veinsmobility minSpeed 3.2059570551388
scalar FloodingNetwork.node[32].veinsmobility maxSpeed 14.352860869385
scalar FloodingNetwork.node[32].veinsmobility totalDistance 1567.2555249102
scalar FloodingNetwork.node[32].veinsmobility totalCO2Emission 451.42923733389
scalar FloodingNetwork.node[82].appl generatedWSMs 0
scalar FloodingNetwork.node[82].appl receivedWSMs 0
scalar FloodingNetwork.node[82].appl generatedBSMs 0
scalar FloodingNetwork.node[82].appl receivedBSMs 0
scalar FloodingNetwork.node[82].appl generatedWSAs 0
scalar FloodingNetwork.node[82].appl receivedWSAs 0
scalar FloodingNetwork.node[82].appl #duplicates 0
scalar FloodingNetwork.node[82].appl #numSent 0
scalar FloodingNetwork.node[82].appl #pktDelay 0
scalar FloodingNetwork.node[82].nic.phy80211p busyTime 0
scalar FloodingNetwork.node[82].nic.mac1609_4 ReceivedUnicastPackets 0
scalar FloodingNetwork.node[82].nic.mac1609_4 ReceivedBroadcasts 0
scalar FloodingNetwork.node[82].nic.mac1609_4 SentPackets 0
scalar FloodingNetwork.node[82].nic.mac1609_4 SentAcknowledgements 0
scalar FloodingNetwork.node[82].nic.mac1609_4 SNIRLostPackets 0
scalar FloodingNetwork.node[82].nic.mac1609_4 RXTXLostPackets 0
scalar FloodingNetwork.node[82].nic.mac1609_4 TotalLostPackets 0
scalar FloodingNetwork.node[82].nic.mac1609_4 DroppedPacketsInMac 0
scalar FloodingNetwork.node[82].nic.mac1609_4 TooLittleTime 0
scalar FloodingNetwork.node[82].nic.mac1609_4 TimesIntoBackoff 0
scalar FloodingNetwork.node[82].nic.mac1609_4 SlotsBackoff 0
scalar FloodingNetwork.node[82].nic.mac1609_4 NumInternalContention 0
scalar FloodingNetwork.node[82].nic.mac1609_4 totalBusyTime 0
scalar FloodingNetwork.node[82].veinsmobility startTime 1.2
scalar FloodingNetwork.node[82].veinsmobility totalTime 140.6
scalar FloodingNetwork.node[82].veinsmobility stopTime 141.9
scalar FloodingNetwork.node[82].veinsmobility minSpeed 3.1594902454934
scalar FloodingNetwork.node[82].veinsmobility maxSpeed 11.299890342785
scalar FloodingNetwork.node[82].veinsmobility totalDistance 1388.2641417131
scalar FloodingNetwork.node[82].veinsmobility totalCO2Emission 347.89798581205
scalar FloodingNetwork.node[86].appl generatedWSMs 0
scalar FloodingNetwork.node[86].appl receivedWSMs 0
scalar FloodingNetwork.node[86].appl generatedBSMs 16
scalar FloodingNetwork.node[86].appl receivedBSMs 0
scalar FloodingNetwork.node[86].appl generatedWSAs 0
scalar FloodingNetwork.node[86].appl receivedWSAs 0
scalar FloodingNetwork.node[86].appl #duplicates 12
scalar FloodingNetwork.node[86].appl #numSent 16
scalar FloodingNetwork.node[86].appl #pktDelay 104.75434679864
scalar FloodingNetwork.node[86].nic.phy80211p busyTime 5.8695652173913e-06
scalar FloodingNetwork.node[86].nic.mac1609_4 ReceivedUnicastPackets 0
scalar FloodingNetwork.node[86].nic.mac1609_4 ReceivedBroadcasts 13
scalar FloodingNetwork.node[86].nic.mac1609_4 SentPackets 16
scalar FloodingNetwork.node[86].nic.mac1609_4 SentAcknowledgements 0
scalar FloodingNetwork.node[86].nic.mac1609_4 SNIRLostPackets 5
scalar FloodingNetwork.node[86].nic.mac1609_4 RXTXLostPackets 1
scalar FloodingNetwork.node[86].nic.mac1609_4 TotalLostPackets 6
scalar FloodingNetwork.node[86].nic.mac1609_4 DroppedPacketsInMac 0
scalar FloodingNetwork.node[86].nic.mac1609_4 TooLittleTime 0
scalar FloodingNetwork.node[86].nic.mac1609_4 TimesIntoBackoff 24
scalar FloodingNetwork.node[86].nic.mac1609_4 SlotsBackoff 23
scalar FloodingNetwork.node[86].nic.mac1609_4 NumInternalContention 0
scalar FloodingNetwork.node[86].nic.mac1609_4 totalBusyTime 0.001648
scalar FloodingNetwork.node[86].veinsmobility startTime 1.2
scalar FloodingNetwork.node[86].veinsmobility totalTime 147.1
scalar FloodingNetwork.node[86].veinsmobility stopTime 148.4
scalar FloodingNetwork.node[86].veinsmobility minSpeed 3.1584018722903
scalar FloodingNetwork.node[86].veinsmobility maxSpeed 14.185383116189
scalar FloodingNetwork.node[86].veinsmobility totalDistance 1511.2042369149
scalar FloodingNetwork.node[86].veinsmobility totalCO2Emission 476.89618777681
scalar FloodingNetwork.node[58].appl generatedWSMs 0
scalar FloodingNetwork.node[58].appl receivedWSMs 0
scalar FloodingNetwork.node[58].appl generatedBSMs 0
scalar FloodingNetwork.node[58].appl receivedBSMs 0
scalar FloodingNetwork.node[58].appl generatedWSAs 0
scalar FloodingNetwork.node[58].appl receivedWSAs 0
scalar FloodingNetwork.node[58].appl #duplicates 0
scalar FloodingNetwork.node[58].appl #numSent 0
scalar FloodingNetwork.node[58].appl #pktDelay 0
scalar FloodingNetwork.node[58].nic.phy80211p busyTime 0
scalar FloodingNetwork.node[58].nic.mac1609_4 ReceivedUnicastPackets 0
scalar FloodingNetwork.node[58].nic.mac1609_4 ReceivedBroadcasts 0
scalar FloodingNetwork.node[58].nic.mac1609_4 SentPackets 0
scalar FloodingNetwork.node[58].nic.mac1609_4 SentAcknowledgements 0
scalar FloodingNetwork.node[58].nic.mac1609_4 SNIRLostPackets 0
scalar FloodingNetwork.node[58].nic.mac1609_4 RXTXLostPackets 0
scalar FloodingNetwork.node[58].nic.mac1609_4 TotalLostPackets 0
scalar FloodingNetwork.node[58].nic.mac1609_4 DroppedPacketsInMac 0
scalar FloodingNetwork.node[58].nic.mac1609_4 TooLittleTime 0
scalar FloodingNetwork.node[58].nic.mac1609_4 TimesIntoBackoff 0
scalar FloodingNetwork.node[58].nic.mac1609_4 SlotsBackoff 0
scalar FloodingNetwork.node[58].nic.mac1609_4 NumInternalContention 0
scalar FloodingNetwork.node[58].nic.mac1609_4 totalBusyTime 0
scalar FloodingNetwork.node[58].veinsmobility startTime 1.2
scalar FloodingNetwork.node[58].veinsmobility totalTime 150.7
scalar FloodingNetwork.node[58].veinsmobility stopTime 152
scalar FloodingNetwork.node[58].veinsmobility minSpeed 3.2045468550621
scalar FloodingNetwork.node[58].veinsmobility maxSpeed 14.191894187209
scalar FloodingNetwork.node[58].veinsmobility totalDistance 1759.1512847528
scalar FloodingNetwork.node[58].veinsmobility totalCO2Emission 443.95700004998
scalar FloodingNetwork.node[56].appl generatedWSMs 0
scalar FloodingNetwork.node[56].appl receivedWSMs 0
scalar FloodingNetwork.node[56].appl generatedBSMs 19
scalar FloodingNetwork.node[56].appl receivedBSMs 0
scalar FloodingNetwork.node[56].appl generatedWSAs 0
scalar FloodingNetwork.node[56].appl receivedWSAs 0
scalar FloodingNetwork.node[56].appl #duplicates 58
scalar FloodingNetwork.node[56].appl #numSent 19
scalar FloodingNetwork.node[56].appl #pktDelay 85.254270107175
scalar FloodingNetwork.node[56].nic.phy80211p busyTime 1.9504761904762e-05
scalar FloodingNetwork.node[56].nic.mac1609_4 ReceivedUnicastPackets 0
scalar FloodingNetwork.node[56].nic.mac1609_4 ReceivedBroadcasts 59
scalar FloodingNetwork.node[56].nic.mac1609_4 SentPackets 19
scalar FloodingNetwork.node[56].nic.mac1609_4 SentAcknowledgements 0
scalar FloodingNetwork.node[56].nic.mac1609_4 SNIRLostPackets 5
scalar FloodingNetwork.node[56].nic.mac1609_4 RXTXLostPackets 0
scalar FloodingNetwork.node[56].nic.mac1609_4 TotalLostPackets 5
scalar FloodingNetwork.node[56].nic.mac1609_4 DroppedPacketsInMac 0
scalar FloodingNetwork.node[56].nic.mac1609_4 TooLittleTime 0
scalar FloodingNetwork.node[56].nic.mac1609_4 TimesIntoBackoff 28
scalar FloodingNetwork.node[56].nic.mac1609_4 SlotsBackoff 24
scalar FloodingNetwork.node[56].nic.mac1609_4 NumInternalContention 0
scalar FloodingNetwork.node[56].nic.mac1609_4 totalBusyTime 0.003955
scalar FloodingNetwork.node[56].veinsmobility startTime 1.2
scalar FloodingNetwork.node[56].veinsmobility totalTime 157.4
scalar FloodingNetwork.node[56].veinsmobility stopTime 158.7
scalar FloodingNetwork.node[56].veinsmobility minSpeed 3.1590916382472
scalar FloodingNetwork.node[56].veinsmobility maxSpeed 12.656798676792
scalar FloodingNetwork.node[56].veinsmobility totalDistance 1597.4982545186
scalar FloodingNetwork.node[56].veinsmobility totalCO2Emission 450.27500872112
scalar FloodingNetwork.node[133].appl generatedWSMs 0
scalar FloodingNetwork.node[133].appl receivedWSMs 0
scalar FloodingNetwork.node[133].appl generatedBSMs 26
scalar FloodingNetwork.node[133].appl receivedBSMs 0
scalar FloodingNetwork.node[133].appl generatedWSAs 0
scalar FloodingNetwork.node[133].appl receivedWSAs 0
scalar FloodingNetwork.node[133].appl #duplicates 48
scalar FloodingNetwork.node[133].appl #numSent 26
scalar FloodingNetwork.node[133].appl #pktDelay 85.254270167468
scalar FloodingNetwork.node[133].nic.phy80211p busyTime 1.593984962406e-05
scalar FloodingNetwork.node[133].nic.mac1609_4 ReceivedUnicastPackets 0
scalar FloodingNetwork.node[133].nic.mac1609_4 ReceivedBroadcasts 49
scalar FloodingNetwork.node[133].nic.mac1609_4 SentPackets 26
scalar FloodingNetwork.node[133].nic.mac1609_4 SentAcknowledgements 0
scalar FloodingNetwork.node[133].nic.mac1609_4 SNIRLostPackets 4
scalar FloodingNetwork.node[133].nic.mac1609_4 RXTXLostPackets 0
scalar FloodingNetwork.node[133].nic.mac1609_4 TotalLostPackets 4
scalar FloodingNetwork.node[133].nic.mac1609_4 DroppedPacketsInMac 0
scalar FloodingNetwork.node[133].nic.mac1609_4 TooLittleTime 0
scalar FloodingNetwork.node[133].nic.mac1609_4 TimesIntoBackoff 44
scalar FloodingNetwork.node[133].nic.mac1609_4 SlotsBackoff 32
scalar FloodingNetwork.node[133].nic.mac1609_4 NumInternalContention 0
scalar FloodingNetwork.node[133].nic.mac1609_4 totalBusyTime 0.003818
scalar FloodingNetwork.node[133].veinsmobility startTime 1.6
scalar FloodingNetwork.node[133].veinsmobility totalTime 159.5
scalar FloodingNetwork.node[133].veinsmobility stopTime 161.2
scalar FloodingNetwork.node[133].veinsmobility minSpeed 0.61329491698687
scalar FloodingNetwork.node[133].veinsmobility maxSpeed 14.585937435264
scalar FloodingNetwork.node[133].veinsmobility totalDistance 1597.8907724135
scalar FloodingNetwork.node[133].veinsmobility totalCO2Emission 474.94818977587
scalar FloodingNetwork.node[144].appl generatedWSMs 0
scalar FloodingNetwork.node[144].appl receivedWSMs 0
scalar FloodingNetwork.node[144].appl generatedBSMs 23
scalar FloodingNetwork.node[144].appl receivedBSMs 0
scalar FloodingNetwork.node[144].appl generatedWSAs 0
scalar FloodingNetwork.node[144].appl receivedWSAs 0
scalar FloodingNetwork.node[144].appl #duplicates 15
scalar FloodingNetwork.node[144].appl #numSent 23
scalar FloodingNetwork.node[144].appl #pktDelay 104.97496343506
scalar FloodingNetwork.node[144].nic.phy80211p busyTime 7.2135253600501e-06
scalar FloodingNetwork.node[144].nic.mac1609_4 ReceivedUnicastPackets 0
scalar FloodingNetwork.node[144].nic.mac1609_4 ReceivedBroadcasts 16
scalar FloodingNetwork.node[144].nic.mac1609_4 SentPackets 23
scalar FloodingNetwork.node[144].nic.mac1609_4 SentAcknowledgements 0
scalar FloodingNetwork.node[144].nic.mac1609_4 SNIRLostPackets 8
scalar FloodingNetwork.node[144].nic.mac1609_4 RXTXLostPackets 0
scalar FloodingNetwork.node[144].nic.mac1609_4 TotalLostPackets 8
scalar FloodingNetwork.node[144].nic.mac1609_4 DroppedPacketsInMac 0
scalar FloodingNetwork.node[144].nic.mac1609_4 TooLittleTime 0
scalar FloodingNetwork.node[144].nic.mac1609_4 TimesIntoBackoff 35
scalar FloodingNetwork.node[144].nic.mac1609_4 SlotsBackoff 33
scalar FloodingNetwork.node[144].nic.mac1609_4 NumInternalContention 0
scalar FloodingNetwork.node[144].nic.mac1609_4 totalBusyTime 0.002231
scalar FloodingNetwork.node[144].veinsmobility startTime 1.7
scalar FloodingNetwork.node[144].veinsmobility totalTime 159.6
scalar FloodingNetwork.node[144].veinsmobility stopTime 161.4
scalar FloodingNetwork.node[144].veinsmobility minSpeed 3.2149569893603
scalar FloodingNetwork.node[144].veinsmobility maxSpeed 11.379549619639
scalar FloodingNetwork.node[144].veinsmobility totalDistance 1511.3597828989
scalar FloodingNetwork.node[144].veinsmobility totalCO2Emission 420.27597413117
scalar FloodingNetwork.node[106].appl generatedWSMs 0
scalar FloodingNetwork.node[106].appl receivedWSMs 0
scalar FloodingNetwork.node[106].appl generatedBSMs 0
scalar FloodingNetwork.node[106].appl receivedBSMs 0
scalar FloodingNetwork.node[106].appl generatedWSAs 0
scalar FloodingNetwork.node[106].appl receivedWSAs 0
scalar FloodingNetwork.node[106].appl #duplicates 0
scalar FloodingNetwork.node[106].appl #numSent 0
scalar FloodingNetwork.node[106].appl #pktDelay 0
scalar FloodingNetwork.node[106].nic.phy80211p busyTime 0
scalar FloodingNetwork.node[106].nic.mac1609_4 ReceivedUnicastPackets 0
scalar FloodingNetwork.node[106].nic.mac1609_4 ReceivedBroadcasts 0
scalar FloodingNetwork.node[106].nic.mac1609_4 SentPackets 0
scalar FloodingNetwork.node[106].nic.mac1609_4 SentAcknowledgements 0
scalar FloodingNetwork.node[106].nic.mac1609_4 SNIRLostPackets 0
scalar FloodingNetwork.node[106].nic.mac1609_4 RXTXLostPackets 0
scalar FloodingNetwork.node[106].nic.mac1609_4 TotalLostPackets 0
scalar FloodingNetwork.node[106].nic.mac1609_4 DroppedPacketsInMac 0
scalar FloodingNetwork.node[106].nic.mac1609_4 TooLittleTime 0
scalar FloodingNetwork.node[106].nic.mac1609_4 TimesIntoBackoff 0
scalar FloodingNetwork.node[106].nic.mac1609_4 SlotsBackoff 0
scalar FloodingNetwork.node[106].nic.mac1609_4 NumInternalContention 0
scalar FloodingNetwork.node[106].nic.mac1609_4 totalBusyTime 0
scalar FloodingNetwork.node[106].veinsmobility startTime 1.2
scalar FloodingNetwork.node[106].veinsmobility totalTime 161.3
scalar FloodingNetwork.node[106].veinsmobility stopTime 162.6
scalar FloodingNetwork.node[106].veinsmobility minSpeed 3.1618841103593
scalar FloodingNetwork.node[106].veinsmobility maxSpeed 12.778218217175
scalar FloodingNetwork.node[106].veinsmobility totalDistance 1776.6890981067
scalar FloodingNetwork.node[106].veinsmobility totalCO2Emission 430.00867840054
scalar FloodingNetwork.node[96].appl generatedWSMs 0
scalar FloodingNetwork.node[96].appl receivedWSMs 0
scalar FloodingNetwork.node[96].appl generatedBSMs 5
scalar FloodingNetwork.node[96].appl receivedBSMs 0
scalar FloodingNetwork.node[96].appl generatedWSAs 0
scalar FloodingNetwork.node[96].appl receivedWSAs 0
scalar FloodingNetwork.node[96].appl #duplicates 4
scalar FloodingNetwork.node[96].appl #numSent 5
scalar FloodingNetwork.node[96].appl #pktDelay 153.85435836829
scalar FloodingNetwork.node[96].nic.phy80211p busyTime 1.7328519855596e-06
scalar FloodingNetwork.node[96].nic.mac1609_4 ReceivedUnicastPackets 0
scalar FloodingNetwork.node[96].nic.mac1609_4 ReceivedBroadcasts 5
scalar FloodingNetwork.node[96].nic.mac1609_4 SentPackets 5
scalar FloodingNetwork.node[96].nic.mac1609_4 SentAcknowledgements 0
scalar FloodingNetwork.node[96].nic.mac1609_4 SNIRLostPackets 1
scalar FloodingNetwork.node[96].nic.mac1609_4 RXTXLostPackets 0
scalar FloodingNetwork.node[96].nic.mac1609_4 TotalLostPackets 1
scalar FloodingNetwork.node[96].nic.mac1609_4 DroppedPacketsInMac 0
scalar FloodingNetwork.node[96].nic.mac1609_4 TooLittleTime 0
scalar FloodingNetwork.node[96].nic.mac1609_4 TimesIntoBackoff 7
scalar FloodingNetwork.node[96].nic.mac1609_4 SlotsBackoff 9
scalar FloodingNetwork.node[96].nic.mac1609_4 NumInternalContention 0
scalar FloodingNetwork.node[96].nic.mac1609_4 totalBusyTime 0.000533
scalar FloodingNetwork.node[96].veinsmobility startTime 1.2
scalar FloodingNetwork.node[96].veinsmobility totalTime 166.1
scalar FloodingNetwork.node[96].veinsmobility stopTime 167.4
scalar FloodingNetwork.node[96].veinsmobility minSpeed 1.7084926456099
scalar FloodingNetwork.node[96].veinsmobility maxSpeed 13.364592328612
scalar FloodingNetwork.node[96].veinsmobility totalDistance 1692.032288856
scalar FloodingNetwork.node[96].veinsmobility totalCO2Emission 497.09783942445
scalar FloodingNetwork.node[62].appl generatedWSMs 0
scalar FloodingNetwork.node[62].appl receivedWSMs 0
scalar FloodingNetwork.node[62].appl generatedBSMs 0
scalar FloodingNetwork.node[62].appl receivedBSMs 0
scalar FloodingNetwork.node[62].appl generatedWSAs 0
scalar FloodingNetwork.node[62].appl receivedWSAs 0
scalar FloodingNetwork.node[62].appl #duplicates 0
scalar FloodingNetwork.node[62].appl #numSent 0
scalar FloodingNetwork.node[62].appl #pktDelay 0
scalar FloodingNetwork.node[62].nic.phy80211p busyTime 0
scalar FloodingNetwork.node[62].nic.mac1609_4 ReceivedUnicastPackets 0
scalar FloodingNetwork.node[62].nic.mac1609_4 ReceivedBroadcasts 0
scalar FloodingNetwork.node[62].nic.mac1609_4 SentPackets 0
scalar FloodingNetwork.node[62].nic.mac1609_4 SentAcknowledgements 0
scalar FloodingNetwork.node[62].nic.mac1609_4 SNIRLostPackets 0
scalar FloodingNetwork.node[62].nic.mac1609_4 RXTXLostPackets 0
scalar FloodingNetwork.node[62].nic.mac1609_4 TotalLostPackets 0
scalar FloodingNetwork.node[62].nic.mac1609_4 DroppedPacketsInMac 0
scalar FloodingNetwork.node[62].nic.mac1609_4 TooLittleTime 0
scalar FloodingNetwork.node[62].nic.mac1609_4 TimesIntoBackoff 0
scalar FloodingNetwork.node[62].nic.mac1609_4 SlotsBackoff 0
scalar FloodingNetwork.node[62].nic.mac1609_4 NumInternalContention 0
scalar FloodingNetwork.node[62].nic.mac1609_4 totalBusyTime 0
scalar FloodingNetwork.node[62].veinsmobility startTime 1.2
scalar FloodingNetwork.node[62].veinsmobility totalTime 169
scalar FloodingNetwork.node[62].veinsmobility stopTime 170.3
scalar FloodingNetwork.node[62].veinsmobility minSpeed 3.1350646101502
scalar FloodingNetwork.node[62].veinsmobility maxSpeed 16.44469412267
scalar FloodingNetwork.node[62].veinsmobility totalDistance 2002.3514370972
scalar FloodingNetwork.node[62].veinsmobility totalCO2Emission 583.96102615138
scalar FloodingNetwork.node[72].appl generatedWSMs 0
scalar FloodingNetwork.node[72].appl receivedWSMs 0
scalar FloodingNetwork.node[72].appl generatedBSMs 34
scalar FloodingNetwork.node[72].appl receivedBSMs 0
scalar FloodingNetwork.node[72].appl generatedWSAs 0
scalar FloodingNetwork.node[72].appl receivedWSAs 0
scalar FloodingNetwork.node[72].appl #duplicates 5
scalar FloodingNetwork.node[72].appl #numSent 34
scalar FloodingNetwork.node[72].appl #pktDelay 98.357099077891
scalar FloodingNetwork.node[72].nic.phy80211p busyTime 1.9741480611046e-06
scalar FloodingNetwork.node[72].nic.mac1609_4 ReceivedUnicastPackets 0
scalar FloodingNetwork.node[72].nic.mac1609_4 ReceivedBroadcasts 6
scalar FloodingNetwork.node[72].nic.mac1609_4 SentPackets 34
scalar FloodingNetwork.node[72].nic.mac1609_4 SentAcknowledgements 0
scalar FloodingNetwork.node[72].nic.mac1609_4 SNIRLostPackets 1
scalar FloodingNetwork.node[72].nic.mac1609_4 RXTXLostPackets 0
scalar FloodingNetwork.node[72].nic.mac1609_4 TotalLostPackets 1
scalar FloodingNetwork.node[72].nic.mac1609_4 DroppedPacketsInMac 0
scalar FloodingNetwork.node[72].nic.mac1609_4 TooLittleTime 0
scalar FloodingNetwork.node[72].nic.mac1609_4 TimesIntoBackoff 55
scalar FloodingNetwork.node[72].nic.mac1609_4 SlotsBackoff 50
scalar FloodingNetwork.node[72].nic.mac1609_4 NumInternalContention 0
scalar FloodingNetwork.node[72].nic.mac1609_4 totalBusyTime 0.002002
scalar FloodingNetwork.node[72].veinsmobility startTime 1.2
scalar FloodingNetwork.node[72].veinsmobility totalTime 170.1
scalar FloodingNetwork.node[72].veinsmobility stopTime 171.4
scalar FloodingNetwork.node[72].veinsmobility minSpeed 3.1869653608666
scalar FloodingNetwork.node[72].veinsmobility maxSpeed 13.039608401731
scalar FloodingNetwork.node[72].veinsmobility totalDistance 1876.1310799327
scalar FloodingNetwork.node[72].veinsmobility totalCO2Emission 469.68515926486
scalar FloodingNetwork.node[27].appl generatedWSMs 0
scalar FloodingNetwork.node[27].appl receivedWSMs 0
scalar FloodingNetwork.node[27].appl generatedBSMs 0
scalar FloodingNetwork.node[27].appl receivedBSMs 0
scalar FloodingNetwork.node[27].appl generatedWSAs 0
scalar FloodingNetwork.node[27].appl receivedWSAs 0
scalar FloodingNetwork.node[27].appl #duplicates 0
scalar FloodingNetwork.node[27].appl #numSent 0
scalar FloodingNetwork.node[27].appl #pktDelay 0
scalar FloodingNetwork.node[27].nic.phy80211p busyTime 2.8086600351083e-07
scalar FloodingNetwork.node[27].nic.mac1609_4 ReceivedUnicastPackets 0
scalar FloodingNetwork.node[27].nic.mac1609_4 ReceivedBroadcasts 0
scalar FloodingNetwork.node[27].nic.mac1609_4 SentPackets 0
scalar FloodingNetwork.node[27].nic.mac1609_4 SentAcknowledgements 0
scalar FloodingNetwork.node[27].nic.mac1609_4 SNIRLostPackets 1
scalar FloodingNetwork.node[27].nic.mac1609_4 RXTXLostPackets 0
scalar FloodingNetwork.node[27].nic.mac1609_4 TotalLostPackets 1
scalar FloodingNetwork.node[27].nic.mac1609_4 DroppedPacketsInMac 0
scalar FloodingNetwork.node[27].nic.mac1609_4 TooLittleTime 0
scalar FloodingNetwork.node[27].nic.mac1609_4 TimesIntoBackoff 0
scalar FloodingNetwork.node[27].nic.mac1609_4 SlotsBackoff 0
scalar FloodingNetwork.node[27].nic.mac1609_4 NumInternalContention 0
scalar FloodingNetwork.node[27].nic.mac1609_4 totalBusyTime 4.8e-05
scalar FloodingNetwork.node[27].veinsmobility startTime 1.2
scalar FloodingNetwork.node[27].veinsmobility totalTime 170.8
scalar FloodingNetwork.node[27].veinsmobility stopTime 172.1
scalar FloodingNetwork.node[27].veinsmobility minSpeed 3.1958618647386
scalar FloodingNetwork.node[27].veinsmobility maxSpeed 14.387973362518
scalar FloodingNetwork.node[27].veinsmobility totalDistance 2055.6264065548
scalar FloodingNetwork.node[27].veinsmobility totalCO2Emission 503.74265157143
scalar FloodingNetwork.node[126].appl generatedWSMs 0
scalar FloodingNetwork.node[126].appl receivedWSMs 0
scalar FloodingNetwork.node[126].appl generatedBSMs 0
scalar FloodingNetwork.node[126].appl receivedBSMs 0
scalar FloodingNetwork.node[126].appl generatedWSAs 0
scalar FloodingNetwork.node[126].appl receivedWSAs 0
scalar FloodingNetwork.node[126].appl #duplicates 0
scalar FloodingNetwork.node[126].appl #numSent 0
scalar FloodingNetwork.node[126].appl #pktDelay 0
scalar FloodingNetwork.node[126].nic.phy80211p busyTime 0
scalar FloodingNetwork.node[126].nic.mac1609_4 ReceivedUnicastPackets 0
scalar FloodingNetwork.node[126].nic.mac1609_4 ReceivedBroadcasts 0
scalar FloodingNetwork.node[126].nic.mac1609_4 SentPackets 0
scalar FloodingNetwork.node[126].nic.mac1609_4 SentAcknowledgements 0
scalar FloodingNetwork.node[126].nic.mac1609_4 SNIRLostPackets 0
scalar FloodingNetwork.node[126].nic.mac1609_4 RXTXLostPackets 0
scalar FloodingNetwork.node[126].nic.mac1609_4 TotalLostPackets 0
scalar FloodingNetwork.node[126].nic.mac1609_4 DroppedPacketsInMac 0
scalar FloodingNetwork.node[126].nic.mac1609_4 TooLittleTime 0
scalar FloodingNetwork.node[126].nic.mac1609_4 TimesIntoBackoff 0
scalar FloodingNetwork.node[126].nic.mac1609_4 SlotsBackoff 0
scalar FloodingNetwork.node[126].nic.mac1609_4 NumInternalContention 0
scalar FloodingNetwork.node[126].nic.mac1609_4 totalBusyTime 0
scalar FloodingNetwork.node[126].veinsmobility startTime 1.2
scalar FloodingNetwork.node[126].veinsmobility totalTime 170.8
scalar FloodingNetwork.node[126].veinsmobility stopTime 172.1
scalar FloodingNetwork.node[126].veinsmobility minSpeed 3.1742486730293
scalar FloodingNetwork.node[126].veinsmobility maxSpeed 15.424300556436
scalar FloodingNetwork.node[126].veinsmobility totalDistance 1823.1958253903
scalar FloodingNetwork.node[126].veinsmobility totalCO2Emission 487.47810394889
scalar FloodingNetwork.node[7].appl generatedWSMs 0
scalar FloodingNetwork.node[7].appl receivedWSMs 0
scalar FloodingNetwork.node[7].appl generatedBSMs 0
scalar FloodingNetwork.node[7].appl receivedBSMs 0
scalar FloodingNetwork.node[7].appl generatedWSAs 0
scalar FloodingNetwork.node[7].appl receivedWSAs 0
scalar FloodingNetwork.node[7].appl #duplicates 0
scalar FloodingNetwork.node[7].appl #numSent 0
scalar FloodingNetwork.node[7].appl #pktDelay 0
scalar FloodingNetwork.node[7].nic.phy80211p busyTime 0
scalar FloodingNetwork.node[7].nic.mac1609_4 ReceivedUnicastPackets 0
scalar FloodingNetwork.node[7].nic.mac1609_4 ReceivedBroadcasts 0
scalar FloodingNetwork.node[7].nic.mac1609_4 SentPackets 0
scalar FloodingNetwork.node[7].nic.mac1609_4 SentAcknowledgements 0
scalar FloodingNetwork.node[7].nic.mac1609_4 SNIRLostPackets 0
scalar FloodingNetwork.node[7].nic.mac1609_4 RXTXLostPackets 0
scalar FloodingNetwork.node[7].nic.mac1609_4 TotalLostPackets 0
scalar FloodingNetwork.node[7].nic.mac1609_4 DroppedPacketsInMac 0
scalar FloodingNetwork.node[7].nic.mac1609_4 TooLittleTime 0
scalar FloodingNetwork.node[7].nic.mac1609_4 TimesIntoBackoff 0
scalar FloodingNetwork.node[7].nic.mac1609_4 SlotsBackoff 0
scalar FloodingNetwork.node[7].nic.mac1609_4 NumInternalContention 0
scalar FloodingNetwork.node[7].nic.mac1609_4 totalBusyTime 0
scalar FloodingNetwork.node[7].veinsmobility startTime 1.2
scalar FloodingNetwork.node[7].veinsmobility totalTime 173.2
scalar FloodingNetwork.node[7].veinsmobility stopTime 174.5
scalar FloodingNetwork.node[7].veinsmobility minSpeed 3.2064884225667
scalar FloodingNetwork.node[7].veinsmobility maxSpeed 14.797447054489
scalar FloodingNetwork.node[7].veinsmobility totalDistance 2021.1762897887
scalar FloodingNetwork.node[7].veinsmobility totalCO2Emission 546.56745312253
scalar FloodingNetwork.node[10].appl generatedWSMs 0
scalar FloodingNetwork.node[10].appl receivedWSMs 0
scalar FloodingNetwork.node[10].appl generatedBSMs 0
scalar FloodingNetwork.node[10].appl receivedBSMs 0
scalar FloodingNetwork.node[10].appl generatedWSAs 0
scalar FloodingNetwork.node[10].appl receivedWSAs 0
scalar FloodingNetwork.node[10].appl #duplicates 0
scalar FloodingNetwork.node[10].appl #numSent 0
scalar FloodingNetwork.node[10].appl #pktDelay 0
scalar FloodingNetwork.node[10].nic.phy80211p busyTime 0
scalar FloodingNetwork.node[10].nic.mac1609_4 ReceivedUnicastPackets 0
scalar FloodingNetwork.node[10].nic.mac1609_4 ReceivedBroadcasts 0
scalar FloodingNetwork.node[10].nic.mac1609_4 SentPackets 0
scalar FloodingNetwork.node[10].nic.mac1609_4 SentAcknowledgements 0
scalar FloodingNetwork.node[10].nic.mac1609_4 SNIRLostPackets 0
scalar FloodingNetwork.node[10].nic.mac1609_4 RXTXLostPackets 0
scalar FloodingNetwork.node[10].nic.mac1609_4 TotalLostPackets 0
scalar FloodingNetwork.node[10].nic.mac1609_4 DroppedPacketsInMac 0
scalar FloodingNetwork.node[10].nic.mac1609_4 TooLittleTime 0
scalar FloodingNetwork.node[10].nic.mac1609_4 TimesIntoBackoff 0
scalar FloodingNetwork.node[10].nic.mac1609_4 SlotsBackoff 0
scalar FloodingNetwork.node[10].nic.mac1609_4 NumInternalContention 0
scalar FloodingNetwork.node[10].nic.mac1609_4 totalBusyTime 0
scalar FloodingNetwork.node[10].veinsmobility startTime 1.2
scalar FloodingNetwork.node[10].veinsmobility totalTime 174.3
scalar FloodingNetwork.node[10].veinsmobility stopTime 175.6
scalar FloodingNetwork.node[10].veinsmobility minSpeed 3.230111897054
scalar FloodingNetwork.node[10].veinsmobility maxSpeed 13.974762132687
scalar FloodingNetwork.node[10].veinsmobility totalDistance 1850.2898814634
scalar FloodingNetwork.node[10].veinsmobility totalCO2Emission 574.14538519863
scalar FloodingNetwork.node[93].appl generatedWSMs 0
scalar FloodingNetwork.node[93].appl receivedWSMs 0
scalar FloodingNetwork.node[93].appl generatedBSMs 0
scalar FloodingNetwork.node[93].appl receivedBSMs 0
scalar FloodingNetwork.node[93].appl generatedWSAs 0
scalar FloodingNetwork.node[93].appl receivedWSAs 0
scalar FloodingNetwork.node[93].appl #duplicates 0
scalar FloodingNetwork.node[93].appl #numSent 0
scalar FloodingNetwork.node[93].appl #pktDelay 0
scalar FloodingNetwork.node[93].nic.phy80211p busyTime 0
scalar FloodingNetwork.node[93].nic.mac1609_4 ReceivedUnicastPackets 0
scalar FloodingNetwork.node[93].nic.mac1609_4 ReceivedBroadcasts 0
scalar FloodingNetwork.node[93].nic.mac1609_4 SentPackets 0
scalar FloodingNetwork.node[93].nic.mac1609_4 SentAcknowledgements 0
scalar FloodingNetwork.node[93].nic.mac1609_4 SNIRLostPackets 0
scalar FloodingNetwork.node[93].nic.mac1609_4 RXTXLostPackets 0
scalar FloodingNetwork.node[93].nic.mac1609_4 TotalLostPackets 0
scalar FloodingNetwork.node[93].nic.mac1609_4 DroppedPacketsInMac 0
scalar FloodingNetwork.node[93].nic.mac1609_4 TooLittleTime 0
scalar FloodingNetwork.node[93].nic.mac1609_4 TimesIntoBackoff 0
scalar FloodingNetwork.node[93].nic.mac1609_4 SlotsBackoff 0
scalar FloodingNetwork.node[93].nic.mac1609_4 NumInternalContention 0
scalar FloodingNetwork.node[93].nic.mac1609_4 totalBusyTime 0
scalar FloodingNetwork.node[93].veinsmobility startTime 1.2
scalar FloodingNetwork.node[93].veinsmobility totalTime 175.7
scalar FloodingNetwork.node[93].veinsmobility stopTime 177
scalar FloodingNetwork.node[93].veinsmobility minSpeed 3.1264541515612
scalar FloodingNetwork.node[93].veinsmobility maxSpeed 12.305816693151
scalar FloodingNetwork.node[93].veinsmobility totalDistance 1910.67933945
scalar FloodingNetwork.node[93].veinsmobility totalCO2Emission 444.57066728053
scalar FloodingNetwork.node[146].appl generatedWSMs 0
scalar FloodingNetwork.node[146].appl receivedWSMs 0
scalar FloodingNetwork.node[146].appl generatedBSMs 53
scalar FloodingNetwork.node[146].appl receivedBSMs 0
scalar FloodingNetwork.node[146].appl generatedWSAs 0
scalar FloodingNetwork.node[146].appl receivedWSAs 0
scalar FloodingNetwork.node[146].appl #duplicates 52
scalar FloodingNetwork.node[146].appl #numSent 53
scalar FloodingNetwork.node[146].appl #pktDelay 52.354322265341
scalar FloodingNetwork.node[146].nic.phy80211p busyTime 1.5881346263548e-05
scalar FloodingNetwork.node[146].nic.mac1609_4 ReceivedUnicastPackets 0
scalar FloodingNetwork.node[146].nic.mac1609_4 ReceivedBroadcasts 53
scalar FloodingNetwork.node[146].nic.mac1609_4 SentPackets 53
scalar FloodingNetwork.node[146].nic.mac1609_4 SentAcknowledgements 0
scalar FloodingNetwork.node[146].nic.mac1609_4 SNIRLostPackets 5
scalar FloodingNetwork.node[146].nic.mac1609_4 RXTXLostPackets 0
scalar FloodingNetwork.node[146].nic.mac1609_4 TotalLostPackets 5
scalar FloodingNetwork.node[146].nic.mac1609_4 DroppedPacketsInMac 0
scalar FloodingNetwork.node[146].nic.mac1609_4 TooLittleTime 0
scalar FloodingNetwork.node[146].nic.mac1609_4 TimesIntoBackoff 86
scalar FloodingNetwork.node[146].nic.mac1609_4 SlotsBackoff 83
scalar FloodingNetwork.node[146].nic.mac1609_4 NumInternalContention 0
scalar FloodingNetwork.node[146].nic.mac1609_4 totalBusyTime 0.005381
scalar FloodingNetwork.node[146].veinsmobility startTime 1.7
scalar FloodingNetwork.node[146].veinsmobility totalTime 175.2
scalar FloodingNetwork.node[146].veinsmobility stopTime 177
scalar FloodingNetwork.node[146].veinsmobility minSpeed 2.5077058325756
scalar FloodingNetwork.node[146].veinsmobility maxSpeed 16.439281874184
scalar FloodingNetwork.node[146].veinsmobility totalDistance 2033.9944002824
scalar FloodingNetwork.node[146].veinsmobility totalCO2Emission 607.33947238108
scalar FloodingNetwork.node[37].appl generatedWSMs 0
scalar FloodingNetwork.node[37].appl receivedWSMs 0
scalar FloodingNetwork.node[37].appl generatedBSMs 22
scalar FloodingNetwork.node[37].appl receivedBSMs 0
scalar FloodingNetwork.node[37].appl generatedWSAs 0
scalar FloodingNetwork.node[37].appl receivedWSAs 0
scalar FloodingNetwork.node[37].appl #duplicates 10
scalar FloodingNetwork.node[37].appl #numSent 22
scalar FloodingNetwork.node[37].appl #pktDelay 127.25443404512
scalar FloodingNetwork.node[37].nic.phy80211p busyTime 3.2523997741389e-06
scalar FloodingNetwork.node[37].nic.mac1609_4 ReceivedUnicastPackets 0
scalar FloodingNetwork.node[37].nic.mac1609_4 ReceivedBroadcasts 11
scalar FloodingNetwork.node[37].nic.mac1609_4 SentPackets 22
scalar FloodingNetwork.node[37].nic.mac1609_4 SentAcknowledgements 0
scalar FloodingNetwork.node[37].nic.mac1609_4 SNIRLostPackets 1
scalar FloodingNetwork.node[37].nic.mac1609_4 RXTXLostPackets 0
scalar FloodingNetwork.node[37].nic.mac1609_4 TotalLostPackets 1
scalar FloodingNetwork.node[37].nic.mac1609_4 DroppedPacketsInMac 0
scalar FloodingNetwork.node[37].nic.mac1609_4 TooLittleTime 0
scalar FloodingNetwork.node[37].nic.mac1609_4 TimesIntoBackoff 31
scalar FloodingNetwork.node[37].nic.mac1609_4 SlotsBackoff 42
scalar FloodingNetwork.node[37].nic.mac1609_4 NumInternalContention 0
scalar FloodingNetwork.node[37].nic.mac1609_4 totalBusyTime 0.001654
scalar FloodingNetwork.node[37].veinsmobility startTime 1.2
scalar FloodingNetwork.node[37].veinsmobility totalTime 177
scalar FloodingNetwork.node[37].veinsmobility stopTime 178.3
scalar FloodingNetwork.node[37].veinsmobility minSpeed 3.2089184806441
scalar FloodingNetwork.node[37].veinsmobility maxSpeed 16.405717941102
scalar FloodingNetwork.node[37].veinsmobility totalDistance 2202.7534664002
scalar FloodingNetwork.node[37].veinsmobility totalCO2Emission 620.00413829037
scalar FloodingNetwork.node[35].appl generatedWSMs 0
scalar FloodingNetwork.node[35].appl receivedWSMs 0
scalar FloodingNetwork.node[35].appl generatedBSMs 0
scalar FloodingNetwork.node[35].appl receivedBSMs 0
scalar FloodingNetwork.node[35].appl generatedWSAs 0
scalar FloodingNetwork.node[35].appl receivedWSAs 0
scalar FloodingNetwork.node[35].appl #duplicates 0
scalar FloodingNetwork.node[35].appl #numSent 0
scalar FloodingNetwork.node[35].appl #pktDelay 0
scalar FloodingNetwork.node[35].nic.phy80211p busyTime 0
scalar FloodingNetwork.node[35].nic.mac1609_4 ReceivedUnicastPackets 0
scalar FloodingNetwork.node[35].nic.mac1609_4 ReceivedBroadcasts 0
scalar FloodingNetwork.node[35].nic.mac1609_4 SentPackets 0
scalar FloodingNetwork.node[35].nic.mac1609_4 SentAcknowledgements 0
scalar FloodingNetwork.node[35].nic.mac1609_4 SNIRLostPackets 0
scalar FloodingNetwork.node[35].nic.mac1609_4 RXTXLostPackets 0
scalar FloodingNetwork.node[35].nic.mac1609_4 TotalLostPackets 0
scalar FloodingNetwork.node[35].nic.mac1609_4 DroppedPacketsInMac 0
scalar FloodingNetwork.node[35].nic.mac1609_4 TooLittleTime 0
scalar FloodingNetwork.node[35].nic.mac1609_4 TimesIntoBackoff 0
scalar FloodingNetwork.node[35].nic.mac1609_4 SlotsBackoff 0
scalar FloodingNetwork.node[35].nic.mac1609_4 NumInternalContention 0
scalar FloodingNetwork.node[35].nic.mac1609_4 totalBusyTime 0
scalar FloodingNetwork.node[35].veinsmobility startTime 1.2
scalar FloodingNetwork.node[35].veinsmobility totalTime 177.9
scalar FloodingNetwork.node[35].veinsmobility stopTime 179.2
scalar FloodingNetwork.node[35].veinsmobility minSpeed 3.1648257848976
scalar FloodingNetwork.node[35].veinsmobility maxSpeed 16.418019820348
scalar FloodingNetwork.node[35].veinsmobility totalDistance 1688.3317206482
scalar FloodingNetwork.node[35].veinsmobility totalCO2Emission 685.82732899135
scalar FloodingNetwork.node[52].appl generatedWSMs 0
scalar FloodingNetwork.node[52].appl receivedWSMs 0
scalar FloodingNetwork.node[52].appl generatedBSMs 31
scalar FloodingNetwork.node[52].appl receivedBSMs 0
scalar FloodingNetwork.node[52].appl generatedWSAs 0
scalar FloodingNetwork.node[52].appl receivedWSAs 0
scalar FloodingNetwork.node[52].appl #duplicates 44
scalar FloodingNetwork.node[52].appl #numSent 31
scalar FloodingNetwork.node[52].appl #pktDelay 108.89478637544
scalar FloodingNetwork.node[52].nic.phy80211p busyTime 1.3132328308208e-05
scalar FloodingNetwork.node[52].nic.mac1609_4 ReceivedUnicastPackets 0
scalar FloodingNetwork.node[52].nic.mac1609_4 ReceivedBroadcasts 45
scalar FloodingNetwork.node[52].nic.mac1609_4 SentPackets 30
scalar FloodingNetwork.node[52].nic.mac1609_4 SentAcknowledgements 0
scalar FloodingNetwork.node[52].nic.mac1609_4 SNIRLostPackets 4
scalar FloodingNetwork.node[52].nic.mac1609_4 RXTXLostPackets 0
scalar FloodingNetwork.node[52].nic.mac1609_4 TotalLostPackets 4
scalar FloodingNetwork.node[52].nic.mac1609_4 DroppedPacketsInMac 0
scalar FloodingNetwork.node[52].nic.mac1609_4 TooLittleTime 0
scalar FloodingNetwork.node[52].nic.mac1609_4 TimesIntoBackoff 46
scalar FloodingNetwork.node[52].nic.mac1609_4 SlotsBackoff 51
scalar FloodingNetwork.node[52].nic.mac1609_4 NumInternalContention 0
scalar FloodingNetwork.node[52].nic.mac1609_4 totalBusyTime 0.003774
scalar FloodingNetwork.node[52].veinsmobility startTime 1.2
scalar FloodingNetwork.node[52].veinsmobility totalTime 179
scalar FloodingNetwork.node[52].veinsmobility stopTime 180.3
scalar FloodingNetwork.node[52].veinsmobility minSpeed 0
scalar FloodingNetwork.node[52].veinsmobility maxSpeed 16.398427382352
scalar FloodingNetwork.node[52].veinsmobility totalDistance 1728.5054890475
scalar FloodingNetwork.node[52].veinsmobility totalCO2Emission 637.1099984409
scalar FloodingNetwork.node[81].appl generatedWSMs 0
scalar FloodingNetwork.node[81].appl receivedWSMs 0
scalar FloodingNetwork.node[81].appl generatedBSMs 33
scalar FloodingNetwork.node[81].appl receivedBSMs 0
scalar FloodingNetwork.node[81].appl generatedWSAs 0
scalar FloodingNetwork.node[81].appl receivedWSAs 0
scalar FloodingNetwork.node[81].appl #duplicates 29
scalar FloodingNetwork.node[81].appl #numSent 33
scalar FloodingNetwork.node[81].appl #pktDelay 104.55450210386
scalar FloodingNetwork.node[81].nic.phy80211p busyTime 9.1020635805912e-06
scalar FloodingNetwork.node[81].nic.mac1609_4 ReceivedUnicastPackets 0
scalar FloodingNetwork.node[81].nic.mac1609_4 ReceivedBroadcasts 30
scalar FloodingNetwork.node[81].nic.mac1609_4 SentPackets 33
scalar FloodingNetwork.node[81].nic.mac1609_4 SentAcknowledgements 0
scalar FloodingNetwork.node[81].nic.mac1609_4 SNIRLostPackets 4
scalar FloodingNetwork.node[81].nic.mac1609_4 RXTXLostPackets 0
scalar FloodingNetwork.node[81].nic.mac1609_4 TotalLostPackets 4
scalar FloodingNetwork.node[81].nic.mac1609_4 DroppedPacketsInMac 0
scalar FloodingNetwork.node[81].nic.mac1609_4 TooLittleTime 0
scalar FloodingNetwork.node[81].nic.mac1609_4 TimesIntoBackoff 49
scalar FloodingNetwork.node[81].nic.mac1609_4 SlotsBackoff 63
scalar FloodingNetwork.node[81].nic.mac1609_4 NumInternalContention 0
scalar FloodingNetwork.node[81].nic.mac1609_4 totalBusyTime 0.003249
scalar FloodingNetwork.node[81].veinsmobility startTime 1.2
scalar FloodingNetwork.node[81].veinsmobility totalTime 179.2
scalar FloodingNetwork.node[81].veinsmobility stopTime 180.5
scalar FloodingNetwork.node[81].veinsmobility minSpeed 3.2471611812735
scalar FloodingNetwork.node[81].veinsmobility maxSpeed 14.919880766489
scalar FloodingNetwork.node[81].veinsmobility totalDistance 1953.5762220325
scalar FloodingNetwork.node[81].veinsmobility totalCO2Emission 581.88159298462
scalar FloodingNetwork.node[142].appl generatedWSMs 0
scalar FloodingNetwork.node[142].appl receivedWSMs 0
scalar FloodingNetwork.node[142].appl generatedBSMs 31
scalar FloodingNetwork.node[142].appl receivedBSMs 0
scalar FloodingNetwork.node[142].appl generatedWSAs 0
scalar FloodingNetwork.node[142].appl receivedWSAs 0
scalar FloodingNetwork.node[142].appl #duplicates 51
scalar FloodingNetwork.node[142].appl #numSent 31
scalar FloodingNetwork.node[142].appl #pktDelay 97.356904252367
scalar FloodingNetwork.node[142].nic.phy80211p busyTime 1.5016759776536e-05
scalar FloodingNetwork.node[142].nic.mac1609_4 ReceivedUnicastPackets 0
scalar FloodingNetwork.node[142].nic.mac1609_4 ReceivedBroadcasts 52
scalar FloodingNetwork.node[142].nic.mac1609_4 SentPackets 31
scalar FloodingNetwork.node[142].nic.mac1609_4 SentAcknowledgements 0
scalar FloodingNetwork.node[142].nic.mac1609_4 SNIRLostPackets 4
scalar FloodingNetwork.node[142].nic.mac1609_4 RXTXLostPackets 2
scalar FloodingNetwork.node[142].nic.mac1609_4 TotalLostPackets 6
scalar FloodingNetwork.node[142].nic.mac1609_4 DroppedPacketsInMac 0
scalar FloodingNetwork.node[142].nic.mac1609_4 TooLittleTime 0
scalar FloodingNetwork.node[142].nic.mac1609_4 TimesIntoBackoff 45
scalar FloodingNetwork.node[142].nic.mac1609_4 SlotsBackoff 44
scalar FloodingNetwork.node[142].nic.mac1609_4 NumInternalContention 0
scalar FloodingNetwork.node[142].nic.mac1609_4 totalBusyTime 0.004207102674
scalar FloodingNetwork.node[142].veinsmobility startTime 1.7
scalar FloodingNetwork.node[142].veinsmobility totalTime 178.9
scalar FloodingNetwork.node[142].veinsmobility stopTime 180.7
scalar FloodingNetwork.node[142].veinsmobility minSpeed 0
scalar FloodingNetwork.node[142].veinsmobility maxSpeed 13.704943197004
scalar FloodingNetwork.node[142].veinsmobility totalDistance 1658.0390731237
scalar FloodingNetwork.node[142].veinsmobility totalCO2Emission 575.37833663735
scalar FloodingNetwork.node[0].appl generatedWSMs 0
scalar FloodingNetwork.node[0].appl receivedWSMs 0
scalar FloodingNetwork.node[0].appl generatedBSMs 0
scalar FloodingNetwork.node[0].appl receivedBSMs 0
scalar FloodingNetwork.node[0].appl generatedWSAs 0
scalar FloodingNetwork.node[0].appl receivedWSAs 0
scalar FloodingNetwork.node[0].appl #duplicates 0
scalar FloodingNetwork.node[0].appl #numSent 0
scalar FloodingNetwork.node[0].appl #pktDelay 0
scalar FloodingNetwork.node[0].nic.phy80211p busyTime 0
scalar FloodingNetwork.node[0].nic.mac1609_4 ReceivedUnicastPackets 0
scalar FloodingNetwork.node[0].nic.mac1609_4 ReceivedBroadcasts 0
scalar FloodingNetwork.node[0].nic.mac1609_4 SentPackets 0
scalar FloodingNetwork.node[0].nic.mac1609_4 SentAcknowledgements 0
scalar FloodingNetwork.node[0].nic.mac1609_4 SNIRLostPackets 0
scalar FloodingNetwork.node[0].nic.mac1609_4 RXTXLostPackets 0
scalar FloodingNetwork.node[0].nic.mac1609_4 TotalLostPackets 0
scalar FloodingNetwork.node[0].nic.mac1609_4 DroppedPacketsInMac 0
scalar FloodingNetwork.node[0].nic.mac1609_4 TooLittleTime 0
scalar FloodingNetwork.node[0].nic.mac1609_4 TimesIntoBackoff 0
scalar FloodingNetwork.node[0].nic.mac1609_4 SlotsBackoff 0
scalar FloodingNetwork.node[0].nic.mac1609_4 NumInternalContention 0
scalar FloodingNetwork.node[0].nic.mac1609_4 totalBusyTime 0
scalar FloodingNetwork.node[0].veinsmobility startTime 1.2
scalar FloodingNetwork.node[0].veinsmobility totalTime 180.4
scalar FloodingNetwork.node[0].veinsmobility stopTime 181.7
scalar FloodingNetwork.node[0].veinsmobility minSpeed 3.174844421761
scalar FloodingNetwork.node[0].veinsmobility maxSpeed 14.312327852446
scalar FloodingNetwork.node[0].veinsmobility totalDistance 1626.8431008696
scalar FloodingNetwork.node[0].veinsmobility totalCO2Emission 604.1691565573
scalar FloodingNetwork.node[1].appl generatedWSMs 0
scalar FloodingNetwork.node[1].appl receivedWSMs 0
scalar FloodingNetwork.node[1].appl generatedBSMs 30
scalar FloodingNetwork.node[1].appl receivedBSMs 0
scalar FloodingNetwork.node[1].appl generatedWSAs 0
scalar FloodingNetwork.node[1].appl receivedWSAs 0
scalar FloodingNetwork.node[1].appl #duplicates 54
scalar FloodingNetwork.node[1].appl #numSent 30
scalar FloodingNetwork.node[1].appl #pktDelay 96.397331093703
scalar FloodingNetwork.node[1].nic.phy80211p busyTime 1.592039800995e-05
scalar FloodingNetwork.node[1].nic.mac1609_4 ReceivedUnicastPackets 0
scalar FloodingNetwork.node[1].nic.mac1609_4 ReceivedBroadcasts 55
scalar FloodingNetwork.node[1].nic.mac1609_4 SentPackets 30
scalar FloodingNetwork.node[1].nic.mac1609_4 SentAcknowledgements 0
scalar FloodingNetwork.node[1].nic.mac1609_4 SNIRLostPackets 5
scalar FloodingNetwork.node[1].nic.mac1609_4 RXTXLostPackets 1
scalar FloodingNetwork.node[1].nic.mac1609_4 TotalLostPackets 6
scalar FloodingNetwork.node[1].nic.mac1609_4 DroppedPacketsInMac 0
scalar FloodingNetwork.node[1].nic.mac1609_4 TooLittleTime 0
scalar FloodingNetwork.node[1].nic.mac1609_4 TimesIntoBackoff 48
scalar FloodingNetwork.node[1].nic.mac1609_4 SlotsBackoff 45
scalar FloodingNetwork.node[1].nic.mac1609_4 NumInternalContention 0
scalar FloodingNetwork.node[1].nic.mac1609_4 totalBusyTime 0.00430200005
scalar FloodingNetwork.node[1].veinsmobility startTime 1.2
scalar FloodingNetwork.node[1].veinsmobility totalTime 180.8
scalar FloodingNetwork.node[1].veinsmobility stopTime 182.1
scalar FloodingNetwork.node[1].veinsmobility minSpeed 1.7748254193512
scalar FloodingNetwork.node[1].veinsmobility maxSpeed 11.712809706086
scalar FloodingNetwork.node[1].veinsmobility totalDistance 1662.2330930081
scalar FloodingNetwork.node[1].veinsmobility totalCO2Emission 513.40877089583
scalar FloodingNetwork.node[103].appl generatedWSMs 0
scalar FloodingNetwork.node[103].appl receivedWSMs 0
scalar FloodingNetwork.node[103].appl generatedBSMs 0
scalar FloodingNetwork.node[103].appl receivedBSMs 0
scalar FloodingNetwork.node[103].appl generatedWSAs 0
scalar FloodingNetwork.node[103].appl receivedWSAs 0
scalar FloodingNetwork.node[103].appl #duplicates 0
scalar FloodingNetwork.node[103].appl #numSent 0
scalar FloodingNetwork.node[103].appl #pktDelay 0
scalar FloodingNetwork.node[103].nic.phy80211p busyTime 0
scalar FloodingNetwork.node[103].nic.mac1609_4 ReceivedUnicastPackets 0
scalar FloodingNetwork.node[103].nic.mac1609_4 ReceivedBroadcasts 0
scalar FloodingNetwork.node[103].nic.mac1609_4 SentPackets 0
scalar FloodingNetwork.node[103].nic.mac1609_4 SentAcknowledgements 0
scalar FloodingNetwork.node[103].nic.mac1609_4 SNIRLostPackets 0
scalar FloodingNetwork.node[103].nic.mac1609_4 RXTXLostPackets 0
scalar FloodingNetwork.node[103].nic.mac1609_4 TotalLostPackets 0
scalar FloodingNetwork.node[103].nic.mac1609_4 DroppedPacketsInMac 0
scalar FloodingNetwork.node[103].nic.mac1609_4 TooLittleTime 0
scalar FloodingNetwork.node[103].nic.mac1609_4 TimesIntoBackoff 0
scalar FloodingNetwork.node[103].nic.mac1609_4 SlotsBackoff 0
scalar FloodingNetwork.node[103].nic.mac1609_4 NumInternalContention 0
scalar FloodingNetwork.node[103].nic.mac1609_4 totalBusyTime 0
scalar FloodingNetwork.node[103].veinsmobility startTime 1.2
scalar FloodingNetwork.node[103].veinsmobility totalTime 181
scalar FloodingNetwork.node[103].veinsmobility stopTime 182.3
scalar FloodingNetwork.node[103].veinsmobility minSpeed 3.1383589282412
scalar FloodingNetwork.node[103].veinsmobility maxSpeed 13.711874711181
scalar FloodingNetwork.node[103].veinsmobility totalDistance 1713.429383166
scalar FloodingNetwork.node[103].veinsmobility totalCO2Emission 604.46199508387
scalar FloodingNetwork.node[57].appl generatedWSMs 0
scalar FloodingNetwork.node[57].appl receivedWSMs 0
scalar FloodingNetwork.node[57].appl generatedBSMs 15
scalar FloodingNetwork.node[57].appl receivedBSMs 0
scalar FloodingNetwork.node[57].appl generatedWSAs 0
scalar FloodingNetwork.node[57].appl receivedWSAs 0
scalar FloodingNetwork.node[57].appl #duplicates 19
scalar FloodingNetwork.node[57].appl #numSent 15
scalar FloodingNetwork.node[57].appl #pktDelay 142.75434822255
scalar FloodingNetwork.node[57].nic.phy80211p busyTime 5.8117776554761e-06
scalar FloodingNetwork.node[57].nic.mac1609_4 ReceivedUnicastPackets 0
scalar FloodingNetwork.node[57].nic.mac1609_4 ReceivedBroadcasts 20
scalar FloodingNetwork.node[57].nic.mac1609_4 SentPackets 14
scalar FloodingNetwork.node[57].nic.mac1609_4 SentAcknowledgements 0
scalar FloodingNetwork.node[57].nic.mac1609_4 SNIRLostPackets 2
scalar FloodingNetwork.node[57].nic.mac1609_4 RXTXLostPackets 0
scalar FloodingNetwork.node[57].nic.mac1609_4 TotalLostPackets 2
scalar FloodingNetwork.node[57].nic.mac1609_4 DroppedPacketsInMac 0
scalar FloodingNetwork.node[57].nic.mac1609_4 TooLittleTime 0
scalar FloodingNetwork.node[57].nic.mac1609_4 TimesIntoBackoff 21
scalar FloodingNetwork.node[57].nic.mac1609_4 SlotsBackoff 26
scalar FloodingNetwork.node[57].nic.mac1609_4 NumInternalContention 0
scalar FloodingNetwork.node[57].nic.mac1609_4 totalBusyTime 0.001742
scalar FloodingNetwork.node[57].veinsmobility startTime 1.2
scalar FloodingNetwork.node[57].veinsmobility totalTime 181.6
scalar FloodingNetwork.node[57].veinsmobility stopTime 182.9
scalar FloodingNetwork.node[57].veinsmobility minSpeed 0
scalar FloodingNetwork.node[57].veinsmobility maxSpeed 16.011728815267
scalar FloodingNetwork.node[57].veinsmobility totalDistance 1647.7695750972
scalar FloodingNetwork.node[57].veinsmobility totalCO2Emission 607.53904474166
scalar FloodingNetwork.node[89].appl generatedWSMs 0
scalar FloodingNetwork.node[89].appl receivedWSMs 0
scalar FloodingNetwork.node[89].appl generatedBSMs 78
scalar FloodingNetwork.node[89].appl receivedBSMs 0
scalar FloodingNetwork.node[89].appl generatedWSAs 0
scalar FloodingNetwork.node[89].appl receivedWSAs 0
scalar FloodingNetwork.node[89].appl #duplicates 76
scalar FloodingNetwork.node[89].appl #numSent 78
scalar FloodingNetwork.node[89].appl #pktDelay 0.454324031197
scalar FloodingNetwork.node[89].nic.phy80211p busyTime 2.1638262781748e-05
scalar FloodingNetwork.node[89].nic.mac1609_4 ReceivedUnicastPackets 0
scalar FloodingNetwork.node[89].nic.mac1609_4 ReceivedBroadcasts 77
scalar FloodingNetwork.node[89].nic.mac1609_4 SentPackets 78
scalar FloodingNetwork.node[89].nic.mac1609_4 SentAcknowledgements 0
scalar FloodingNetwork.node[89].nic.mac1609_4 SNIRLostPackets 5
scalar FloodingNetwork.node[89].nic.mac1609_4 RXTXLostPackets 0
scalar FloodingNetwork.node[89].nic.mac1609_4 TotalLostPackets 5
scalar FloodingNetwork.node[89].nic.mac1609_4 DroppedPacketsInMac 0
scalar FloodingNetwork.node[89].nic.mac1609_4 TooLittleTime 0
scalar FloodingNetwork.node[89].nic.mac1609_4 TimesIntoBackoff 117
scalar FloodingNetwork.node[89].nic.mac1609_4 SlotsBackoff 115
scalar FloodingNetwork.node[89].nic.mac1609_4 NumInternalContention 0
scalar FloodingNetwork.node[89].nic.mac1609_4 totalBusyTime 0.007758
scalar FloodingNetwork.node[89].veinsmobility startTime 1.2
scalar FloodingNetwork.node[89].veinsmobility totalTime 181.8
scalar FloodingNetwork.node[89].veinsmobility stopTime 183.1
scalar FloodingNetwork.node[89].veinsmobility minSpeed 0.51619077530943
scalar FloodingNetwork.node[89].veinsmobility maxSpeed 13.046301511722
scalar FloodingNetwork.node[89].veinsmobility totalDistance 1876.6007846629
scalar FloodingNetwork.node[89].veinsmobility totalCO2Emission 527.24030848505
scalar FloodingNetwork.node[9].appl generatedWSMs 0
scalar FloodingNetwork.node[9].appl receivedWSMs 0
scalar FloodingNetwork.node[9].appl generatedBSMs 45
scalar FloodingNetwork.node[9].appl receivedBSMs 0
scalar FloodingNetwork.node[9].appl generatedWSAs 0
scalar FloodingNetwork.node[9].appl receivedWSAs 0
scalar FloodingNetwork.node[9].appl #duplicates 23
scalar FloodingNetwork.node[9].appl #numSent 45
scalar FloodingNetwork.node[9].appl #pktDelay 86.193877127515
scalar FloodingNetwork.node[9].nic.phy80211p busyTime 6.7277628032345e-06
scalar FloodingNetwork.node[9].nic.mac1609_4 ReceivedUnicastPackets 0
scalar FloodingNetwork.node[9].nic.mac1609_4 ReceivedBroadcasts 24
scalar FloodingNetwork.node[9].nic.mac1609_4 SentPackets 45
scalar FloodingNetwork.node[9].nic.mac1609_4 SentAcknowledgements 0
scalar FloodingNetwork.node[9].nic.mac1609_4 SNIRLostPackets 2
scalar FloodingNetwork.node[9].nic.mac1609_4 RXTXLostPackets 1
scalar FloodingNetwork.node[9].nic.mac1609_4 TotalLostPackets 3
scalar FloodingNetwork.node[9].nic.mac1609_4 DroppedPacketsInMac 0
scalar FloodingNetwork.node[9].nic.mac1609_4 TooLittleTime 0
scalar FloodingNetwork.node[9].nic.mac1609_4 TimesIntoBackoff 72
scalar FloodingNetwork.node[9].nic.mac1609_4 SlotsBackoff 75
scalar FloodingNetwork.node[9].nic.mac1609_4 NumInternalContention 0
scalar FloodingNetwork.node[9].nic.mac1609_4 totalBusyTime 0.003453
scalar FloodingNetwork.node[9].veinsmobility startTime 1.2
scalar FloodingNetwork.node[9].veinsmobility totalTime 185.4
scalar FloodingNetwork.node[9].veinsmobility stopTime 186.7
scalar FloodingNetwork.node[9].veinsmobility minSpeed 0
scalar FloodingNetwork.node[9].veinsmobility maxSpeed 14.950597179555
scalar FloodingNetwork.node[9].veinsmobility totalDistance 1852.2517417125
scalar FloodingNetwork.node[9].veinsmobility totalCO2Emission 626.30053492353
scalar FloodingNetwork.node[122].appl generatedWSMs 0
scalar FloodingNetwork.node[122].appl receivedWSMs 0
scalar FloodingNetwork.node[122].appl generatedBSMs 16
scalar FloodingNetwork.node[122].appl receivedBSMs 0
scalar FloodingNetwork.node[122].appl generatedWSAs 0
scalar FloodingNetwork.node[122].appl receivedWSAs 0
scalar FloodingNetwork.node[122].appl #duplicates 24
scalar FloodingNetwork.node[122].appl #numSent 16
scalar FloodingNetwork.node[122].appl #pktDelay 147.35432238948
scalar FloodingNetwork.node[122].nic.phy80211p busyTime 6.813880126183e-06
scalar FloodingNetwork.node[122].nic.mac1609_4 ReceivedUnicastPackets 0
scalar FloodingNetwork.node[122].nic.mac1609_4 ReceivedBroadcasts 25
scalar FloodingNetwork.node[122].nic.mac1609_4 SentPackets 16
scalar FloodingNetwork.node[122].nic.mac1609_4 SentAcknowledgements 0
scalar FloodingNetwork.node[122].nic.mac1609_4 SNIRLostPackets 2
scalar FloodingNetwork.node[122].nic.mac1609_4 RXTXLostPackets 0
scalar FloodingNetwork.node[122].nic.mac1609_4 TotalLostPackets 2
scalar FloodingNetwork.node[122].nic.mac1609_4 DroppedPacketsInMac 0
scalar FloodingNetwork.node[122].nic.mac1609_4 TooLittleTime 0
scalar FloodingNetwork.node[122].nic.mac1609_4 TimesIntoBackoff 22
scalar FloodingNetwork.node[122].nic.mac1609_4 SlotsBackoff 24
scalar FloodingNetwork.node[122].nic.mac1609_4 NumInternalContention 0
scalar FloodingNetwork.node[122].nic.mac1609_4 totalBusyTime 0.002032
scalar FloodingNetwork.node[122].veinsmobility startTime 1.2
scalar FloodingNetwork.node[122].veinsmobility totalTime 190.1
scalar FloodingNetwork.node[122].veinsmobility stopTime 191.4
scalar FloodingNetwork.node[122].veinsmobility minSpeed 2.4023566860107
scalar FloodingNetwork.node[122].veinsmobility maxSpeed 13.991106013795
scalar FloodingNetwork.node[122].veinsmobility totalDistance 1771.9217837373
scalar FloodingNetwork.node[122].veinsmobility totalCO2Emission 502.9613933928
scalar FloodingNetwork.node[15].appl generatedWSMs 0
scalar FloodingNetwork.node[15].appl receivedWSMs 0
scalar FloodingNetwork.node[15].appl generatedBSMs 35
scalar FloodingNetwork.node[15].appl receivedBSMs 0
scalar FloodingNetwork.node[15].appl generatedWSAs 0
scalar FloodingNetwork.node[15].appl receivedWSAs 0
scalar FloodingNetwork.node[15].appl #duplicates 5
scalar FloodingNetwork.node[15].appl #numSent 35
scalar FloodingNetwork.node[15].appl #pktDelay 117.18076423473
scalar FloodingNetwork.node[15].nic.phy80211p busyTime 1.7582417582418e-06
scalar FloodingNetwork.node[15].nic.mac1609_4 ReceivedUnicastPackets 0
scalar FloodingNetwork.node[15].nic.mac1609_4 ReceivedBroadcasts 6
scalar FloodingNetwork.node[15].nic.mac1609_4 SentPackets 35
scalar FloodingNetwork.node[15].nic.mac1609_4 SentAcknowledgements 0
scalar FloodingNetwork.node[15].nic.mac1609_4 SNIRLostPackets 1
scalar FloodingNetwork.node[15].nic.mac1609_4 RXTXLostPackets 0
scalar FloodingNetwork.node[15].nic.mac1609_4 TotalLostPackets 1
scalar FloodingNetwork.node[15].nic.mac1609_4 DroppedPacketsInMac 0
scalar FloodingNetwork.node[15].nic.mac1609_4 TooLittleTime 0
scalar FloodingNetwork.node[15].nic.mac1609_4 TimesIntoBackoff 55
scalar FloodingNetwork.node[15].nic.mac1609_4 SlotsBackoff 61
scalar FloodingNetwork.node[15].nic.mac1609_4 NumInternalContention 0
scalar FloodingNetwork.node[15].nic.mac1609_4 totalBusyTime 0.002051
scalar FloodingNetwork.node[15].veinsmobility startTime 1.2
scalar FloodingNetwork.node[15].veinsmobility totalTime 191
scalar FloodingNetwork.node[15].veinsmobility stopTime 192.3
scalar FloodingNetwork.node[15].veinsmobility minSpeed 0.39831533827912
scalar FloodingNetwork.node[15].veinsmobility maxSpeed 14.606113090003
scalar FloodingNetwork.node[15].veinsmobility totalDistance 1901.4170486228
scalar FloodingNetwork.node[15].veinsmobility totalCO2Emission 666.48169431185
scalar FloodingNetwork.node[46].appl generatedWSMs 0
scalar FloodingNetwork.node[46].appl receivedWSMs 0
scalar FloodingNetwork.node[46].appl generatedBSMs 0
scalar FloodingNetwork.node[46].appl receivedBSMs 0
scalar FloodingNetwork.node[46].appl generatedWSAs 0
scalar FloodingNetwork.node[46].appl receivedWSAs 0
scalar FloodingNetwork.node[46].appl #duplicates 0
scalar FloodingNetwork.node[46].appl #numSent 0
scalar FloodingNetwork.node[46].appl #pktDelay 0
scalar FloodingNetwork.node[46].nic.phy80211p busyTime 0
scalar FloodingNetwork.node[46].nic.mac1609_4 ReceivedUnicastPackets 0
scalar FloodingNetwork.node[46].nic.mac1609_4 ReceivedBroadcasts 0
scalar FloodingNetwork.node[46].nic.mac1609_4 SentPackets 0
scalar FloodingNetwork.node[46].nic.mac1609_4 SentAcknowledgements 0
scalar FloodingNetwork.node[46].nic.mac1609_4 SNIRLostPackets 0
scalar FloodingNetwork.node[46].nic.mac1609_4 RXTXLostPackets 0
scalar FloodingNetwork.node[46].nic.mac1609_4 TotalLostPackets 0
scalar FloodingNetwork.node[46].nic.mac1609_4 DroppedPacketsInMac 0
scalar FloodingNetwork.node[46].nic.mac1609_4 TooLittleTime 0
scalar FloodingNetwork.node[46].nic.mac1609_4 TimesIntoBackoff 0
scalar FloodingNetwork.node[46].nic.mac1609_4 SlotsBackoff 0
scalar FloodingNetwork.node[46].nic.mac1609_4 NumInternalContention 0
scalar FloodingNetwork.node[46].nic.mac1609_4 totalBusyTime 0
scalar FloodingNetwork.node[46].veinsmobility startTime 1.2
scalar FloodingNetwork.node[46].veinsmobility totalTime 191.3
scalar FloodingNetwork.node[46].veinsmobility stopTime 192.6
scalar FloodingNetwork.node[46].veinsmobility minSpeed 3.2091198590593
scalar FloodingNetwork.node[46].veinsmobility maxSpeed 15.642942127997
scalar FloodingNetwork.node[46].veinsmobility totalDistance 1900.5181547439
scalar FloodingNetwork.node[46].veinsmobility totalCO2Emission 715.4117588138
scalar FloodingNetwork.node[16].appl generatedWSMs 0
scalar FloodingNetwork.node[16].appl receivedWSMs 0
scalar FloodingNetwork.node[16].appl generatedBSMs 61
scalar FloodingNetwork.node[16].appl receivedBSMs 0
scalar FloodingNetwork.node[16].appl generatedWSAs 0
scalar FloodingNetwork.node[16].appl receivedWSAs 0
scalar FloodingNetwork.node[16].appl #duplicates 23
scalar FloodingNetwork.node[16].appl #numSent 61
scalar FloodingNetwork.node[16].appl #pktDelay 58.855846875682
scalar FloodingNetwork.node[16].nic.phy80211p busyTime 8.0167014613779e-06
scalar FloodingNetwork.node[16].nic.mac1609_4 ReceivedUnicastPackets 0
scalar FloodingNetwork.node[16].nic.mac1609_4 ReceivedBroadcasts 24
scalar FloodingNetwork.node[16].nic.mac1609_4 SentPackets 61
scalar FloodingNetwork.node[16].nic.mac1609_4 SentAcknowledgements 0
scalar FloodingNetwork.node[16].nic.mac1609_4 SNIRLostPackets 8
scalar FloodingNetwork.node[16].nic.mac1609_4 RXTXLostPackets 0
scalar FloodingNetwork.node[16].nic.mac1609_4 TotalLostPackets 8
scalar FloodingNetwork.node[16].nic.mac1609_4 DroppedPacketsInMac 0
scalar FloodingNetwork.node[16].nic.mac1609_4 TooLittleTime 0
scalar FloodingNetwork.node[16].nic.mac1609_4 TimesIntoBackoff 99
scalar FloodingNetwork.node[16].nic.mac1609_4 SlotsBackoff 80
scalar FloodingNetwork.node[16].nic.mac1609_4 NumInternalContention 0
scalar FloodingNetwork.node[16].nic.mac1609_4 totalBusyTime 0.004477
scalar FloodingNetwork.node[16].veinsmobility startTime 1.2
scalar FloodingNetwork.node[16].veinsmobility totalTime 191.5
scalar FloodingNetwork.node[16].veinsmobility stopTime 192.8
scalar FloodingNetwork.node[16].veinsmobility minSpeed 2.0246347992682
scalar FloodingNetwork.node[16].veinsmobility maxSpeed 14.469994839551
scalar FloodingNetwork.node[16].veinsmobility totalDistance 2293.781205789
scalar FloodingNetwork.node[16].veinsmobility totalCO2Emission 567.14378416419
scalar FloodingNetwork.node[60].appl generatedWSMs 0
scalar FloodingNetwork.node[60].appl receivedWSMs 0
scalar FloodingNetwork.node[60].appl generatedBSMs 0
scalar FloodingNetwork.node[60].appl receivedBSMs 0
scalar FloodingNetwork.node[60].appl generatedWSAs 0
scalar FloodingNetwork.node[60].appl receivedWSAs 0
scalar FloodingNetwork.node[60].appl #duplicates 0
scalar FloodingNetwork.node[60].appl #numSent 0
scalar FloodingNetwork.node[60].appl #pktDelay 0
scalar FloodingNetwork.node[60].nic.phy80211p busyTime 0
scalar FloodingNetwork.node[60].nic.mac1609_4 ReceivedUnicastPackets 0
scalar FloodingNetwork.node[60].nic.mac1609_4 ReceivedBroadcasts 0
scalar FloodingNetwork.node[60].nic.mac1609_4 SentPackets 0
scalar FloodingNetwork.node[60].nic.mac1609_4 SentAcknowledgements 0
scalar FloodingNetwork.node[60].nic.mac1609_4 SNIRLostPackets 0
scalar FloodingNetwork.node[60].nic.mac1609_4 RXTXLostPackets 0
scalar FloodingNetwork.node[60].nic.mac1609_4 TotalLostPackets 0
scalar FloodingNetwork.node[60].nic.mac1609_4 DroppedPacketsInMac 0
scalar FloodingNetwork.node[60].nic.mac1609_4 TooLittleTime 0
scalar FloodingNetwork.node[60].nic.mac1609_4 TimesIntoBackoff 0
scalar FloodingNetwork.node[60].nic.mac1609_4 SlotsBackoff 0
scalar FloodingNetwork.node[60].nic.mac1609_4 NumInternalContention 0
scalar FloodingNetwork.node[60].nic.mac1609_4 totalBusyTime 0
scalar FloodingNetwork.node[60].veinsmobility startTime 1.2
scalar FloodingNetwork.node[60].veinsmobility totalTime 192
scalar FloodingNetwork.node[60].veinsmobility stopTime 193.3
scalar FloodingNetwork.node[60].veinsmobility minSpeed 3.1547828738495
scalar FloodingNetwork.node[60].veinsmobility maxSpeed 13.678091403343
scalar FloodingNetwork.node[60].veinsmobility totalDistance 2229.3797665304
scalar FloodingNetwork.node[60].veinsmobility totalCO2Emission 543.41597654373
scalar FloodingNetwork.node[34].appl generatedWSMs 0
scalar FloodingNetwork.node[34].appl receivedWSMs 0
scalar FloodingNetwork.node[34].appl generatedBSMs 0
scalar FloodingNetwork.node[34].appl receivedBSMs 0
scalar FloodingNetwork.node[34].appl generatedWSAs 0
scalar FloodingNetwork.node[34].appl receivedWSAs 0
scalar FloodingNetwork.node[34].appl #duplicates 0
scalar FloodingNetwork.node[34].appl #numSent 0
scalar FloodingNetwork.node[34].appl #pktDelay 0
scalar FloodingNetwork.node[34].nic.phy80211p busyTime 0
scalar FloodingNetwork.node[34].nic.mac1609_4 ReceivedUnicastPackets 0
scalar FloodingNetwork.node[34].nic.mac1609_4 ReceivedBroadcasts 0
scalar FloodingNetwork.node[34].nic.mac1609_4 SentPackets 0
scalar FloodingNetwork.node[34].nic.mac1609_4 SentAcknowledgements 0
scalar FloodingNetwork.node[34].nic.mac1609_4 SNIRLostPackets 0
scalar FloodingNetwork.node[34].nic.mac1609_4 RXTXLostPackets 0
scalar FloodingNetwork.node[34].nic.mac1609_4 TotalLostPackets 0
scalar FloodingNetwork.node[34].nic.mac1609_4 DroppedPacketsInMac 0
scalar FloodingNetwork.node[34].nic.mac1609_4 TooLittleTime 0
scalar FloodingNetwork.node[34].nic.mac1609_4 TimesIntoBackoff 0
scalar FloodingNetwork.node[34].nic.mac1609_4 SlotsBackoff 0
scalar FloodingNetwork.node[34].nic.mac1609_4 NumInternalContention 0
scalar FloodingNetwork.node[34].nic.mac1609_4 totalBusyTime 0
scalar FloodingNetwork.node[34].veinsmobility startTime 1.2
scalar FloodingNetwork.node[34].veinsmobility totalTime 193.7
scalar FloodingNetwork.node[34].veinsmobility stopTime 195
scalar FloodingNetwork.node[34].veinsmobility minSpeed 3.2027891365883
scalar FloodingNetwork.node[34].veinsmobility maxSpeed 14.644982974496
scalar FloodingNetwork.node[34].veinsmobility totalDistance 2269.2856247696
scalar FloodingNetwork.node[34].veinsmobility totalCO2Emission 607.77803126649
scalar FloodingNetwork.node[87].appl generatedWSMs 0
scalar FloodingNetwork.node[87].appl receivedWSMs 0
scalar FloodingNetwork.node[87].appl generatedBSMs 0
scalar FloodingNetwork.node[87].appl receivedBSMs 0
scalar FloodingNetwork.node[87].appl generatedWSAs 0
scalar FloodingNetwork.node[87].appl receivedWSAs 0
scalar FloodingNetwork.node[87].appl #duplicates 0
scalar FloodingNetwork.node[87].appl #numSent 0
scalar FloodingNetwork.node[87].appl #pktDelay 0
scalar FloodingNetwork.node[87].nic.phy80211p busyTime 0
scalar FloodingNetwork.node[87].nic.mac1609_4 ReceivedUnicastPackets 0
scalar FloodingNetwork.node[87].nic.mac1609_4 ReceivedBroadcasts 0
scalar FloodingNetwork.node[87].nic.mac1609_4 SentPackets 0
scalar FloodingNetwork.node[87].nic.mac1609_4 SentAcknowledgements 0
scalar FloodingNetwork.node[87].nic.mac1609_4 SNIRLostPackets 0
scalar FloodingNetwork.node[87].nic.mac1609_4 RXTXLostPackets 0
scalar FloodingNetwork.node[87].nic.mac1609_4 TotalLostPackets 0
scalar FloodingNetwork.node[87].nic.mac1609_4 DroppedPacketsInMac 0
scalar FloodingNetwork.node[87].nic.mac1609_4 TooLittleTime 0
scalar FloodingNetwork.node[87].nic.mac1609_4 TimesIntoBackoff 0
scalar FloodingNetwork.node[87].nic.mac1609_4 SlotsBackoff 0
scalar FloodingNetwork.node[87].nic.mac1609_4 NumInternalContention 0
scalar FloodingNetwork.node[87].nic.mac1609_4 totalBusyTime 0
scalar FloodingNetwork.node[87].veinsmobility startTime 1.2
scalar FloodingNetwork.node[87].veinsmobility totalTime 193.9
scalar FloodingNetwork.node[87].veinsmobility stopTime 195.2
scalar FloodingNetwork.node[87].veinsmobility minSpeed 3.188188645776
scalar FloodingNetwork.node[87].veinsmobility maxSpeed 14.423546300743
scalar FloodingNetwork.node[87].veinsmobility totalDistance 1925.6971954687
scalar FloodingNetwork.node[87].veinsmobility totalCO2Emission 649.48009534427
scalar FloodingNetwork.node[118].appl generatedWSMs 0
scalar FloodingNetwork.node[118].appl receivedWSMs 0
scalar FloodingNetwork.node[118].appl generatedBSMs 0
scalar FloodingNetwork.node[118].appl receivedBSMs 0
scalar FloodingNetwork.node[118].appl generatedWSAs 0
scalar FloodingNetwork.node[118].appl receivedWSAs 0
scalar FloodingNetwork.node[118].appl #duplicates 0
scalar FloodingNetwork.node[118].appl #numSent 0
scalar FloodingNetwork.node[118].appl #pktDelay 0
scalar FloodingNetwork.node[118].nic.phy80211p busyTime 0
scalar FloodingNetwork.node[118].nic.mac1609_4 ReceivedUnicastPackets 0
scalar FloodingNetwork.node[118].nic.mac1609_4 ReceivedBroadcasts 0
scalar FloodingNetwork.node[118].nic.mac1609_4 SentPackets 0
scalar FloodingNetwork.node[118].nic.mac1609_4 SentAcknowledgements 0
scalar FloodingNetwork.node[118].nic.mac1609_4 SNIRLostPackets 0
scalar FloodingNetwork.node[118].nic.mac1609_4 RXTXLostPackets 0
scalar FloodingNetwork.node[118].nic.mac1609_4 TotalLostPackets 0
scalar FloodingNetwork.node[118].nic.mac1609_4 DroppedPacketsInMac 0
scalar FloodingNetwork.node[118].nic.mac1609_4 TooLittleTime 0
scalar FloodingNetwork.node[118].nic.mac1609_4 TimesIntoBackoff 0
scalar FloodingNetwork.node[118].nic.mac1609_4 SlotsBackoff 0
scalar FloodingNetwork.node[118].nic.mac1609_4 NumInternalContention 0
scalar FloodingNetwork.node[118].nic.mac1609_4 totalBusyTime 0
scalar FloodingNetwork.node[118].veinsmobility startTime 1.2
scalar FloodingNetwork.node[118].veinsmobility totalTime 194.7
scalar FloodingNetwork.node[118].veinsmobility stopTime 196
scalar FloodingNetwork.node[118].veinsmobility minSpeed 3.1914855869558
scalar FloodingNetwork.node[118].veinsmobility maxSpeed 13.213376706481
scalar FloodingNetwork.node[118].veinsmobility totalDistance 2111.4046114922
scalar FloodingNetwork.node[118].veinsmobility totalCO2Emission 526.19013694133
scalar FloodingNetwork.node[66].appl generatedWSMs 0
scalar FloodingNetwork.node[66].appl receivedWSMs 0
scalar FloodingNetwork.node[66].appl generatedBSMs 0
scalar FloodingNetwork.node[66].appl receivedBSMs 0
scalar FloodingNetwork.node[66].appl generatedWSAs 0
scalar FloodingNetwork.node[66].appl receivedWSAs 0
scalar FloodingNetwork.node[66].appl #duplicates 0
scalar FloodingNetwork.node[66].appl #numSent 0
scalar FloodingNetwork.node[66].appl #pktDelay 0
scalar FloodingNetwork.node[66].nic.phy80211p busyTime 2.4552429667519e-07
scalar FloodingNetwork.node[66].nic.mac1609_4 ReceivedUnicastPackets 0
scalar FloodingNetwork.node[66].nic.mac1609_4 ReceivedBroadcasts 0
scalar FloodingNetwork.node[66].nic.mac1609_4 SentPackets 0
scalar FloodingNetwork.node[66].nic.mac1609_4 SentAcknowledgements 0
scalar FloodingNetwork.node[66].nic.mac1609_4 SNIRLostPackets 1
scalar FloodingNetwork.node[66].nic.mac1609_4 RXTXLostPackets 0
scalar FloodingNetwork.node[66].nic.mac1609_4 TotalLostPackets 1
scalar FloodingNetwork.node[66].nic.mac1609_4 DroppedPacketsInMac 0
scalar FloodingNetwork.node[66].nic.mac1609_4 TooLittleTime 0
scalar FloodingNetwork.node[66].nic.mac1609_4 TimesIntoBackoff 0
scalar FloodingNetwork.node[66].nic.mac1609_4 SlotsBackoff 0
scalar FloodingNetwork.node[66].nic.mac1609_4 NumInternalContention 0
scalar FloodingNetwork.node[66].nic.mac1609_4 totalBusyTime 4.8e-05
scalar FloodingNetwork.node[66].veinsmobility startTime 1.2
scalar FloodingNetwork.node[66].veinsmobility totalTime 195.4
scalar FloodingNetwork.node[66].veinsmobility stopTime 196.7
scalar FloodingNetwork.node[66].veinsmobility minSpeed 3.1491054777943
scalar FloodingNetwork.node[66].veinsmobility maxSpeed 18.253486746142
scalar FloodingNetwork.node[66].veinsmobility totalDistance 2078.2870113547
scalar FloodingNetwork.node[66].veinsmobility totalCO2Emission 704.31847606413
scalar FloodingNetwork.node[23].appl generatedWSMs 0
scalar FloodingNetwork.node[23].appl receivedWSMs 0
scalar FloodingNetwork.node[23].appl generatedBSMs 11
scalar FloodingNetwork.node[23].appl receivedBSMs 0
scalar FloodingNetwork.node[23].appl generatedWSAs 0
scalar FloodingNetwork.node[23].appl receivedWSAs 0
scalar FloodingNetwork.node[23].appl #duplicates 6
scalar FloodingNetwork.node[23].appl #numSent 11
scalar FloodingNetwork.node[23].appl #pktDelay 169.86704031697
scalar FloodingNetwork.node[23].nic.phy80211p busyTime 1.7186700767263e-06
scalar FloodingNetwork.node[23].nic.mac1609_4 ReceivedUnicastPackets 0
scalar FloodingNetwork.node[23].nic.mac1609_4 ReceivedBroadcasts 7
scalar FloodingNetwork.node[23].nic.mac1609_4 SentPackets 11
scalar FloodingNetwork.node[23].nic.mac1609_4 SentAcknowledgements 0
scalar FloodingNetwork.node[23].nic.mac1609_4 SNIRLostPackets 0
scalar FloodingNetwork.node[23].nic.mac1609_4 RXTXLostPackets 0
scalar FloodingNetwork.node[23].nic.mac1609_4 TotalLostPackets 0
scalar FloodingNetwork.node[23].nic.mac1609_4 DroppedPacketsInMac 0
scalar FloodingNetwork.node[23].nic.mac1609_4 TooLittleTime 0
scalar FloodingNetwork.node[23].nic.mac1609_4 TimesIntoBackoff 18
scalar FloodingNetwork.node[23].nic.mac1609_4 SlotsBackoff 14
scalar FloodingNetwork.node[23].nic.mac1609_4 NumInternalContention 0
scalar FloodingNetwork.node[23].nic.mac1609_4 totalBusyTime 0.000875
scalar FloodingNetwork.node[23].veinsmobility startTime 1.2
scalar FloodingNetwork.node[23].veinsmobility totalTime 195.4
scalar FloodingNetwork.node[23].veinsmobility stopTime 196.7
scalar FloodingNetwork.node[23].veinsmobility minSpeed 0
scalar FloodingNetwork.node[23].veinsmobility maxSpeed 12.220587422186
scalar FloodingNetwork.node[23].veinsmobility totalDistance 1854.4005925415
scalar FloodingNetwork.node[23].veinsmobility totalCO2Emission 530.46657161176
scalar FloodingNetwork.node[94].appl generatedWSMs 0
scalar FloodingNetwork.node[94].appl receivedWSMs 0
scalar FloodingNetwork.node[94].appl generatedBSMs 70
scalar FloodingNetwork.node[94].appl receivedBSMs 0
scalar FloodingNetwork.node[94].appl generatedWSAs 0
scalar FloodingNetwork.node[94].appl receivedWSAs 0
scalar FloodingNetwork.node[94].appl #duplicates 33
scalar FloodingNetwork.node[94].appl #numSent 70
scalar FloodingNetwork.node[94].appl #pktDelay 37.877991350634
scalar FloodingNetwork.node[94].nic.phy80211p busyTime 1.0413723511604e-05
scalar FloodingNetwork.node[94].nic.mac1609_4 ReceivedUnicastPackets 0
scalar FloodingNetwork.node[94].nic.mac1609_4 ReceivedBroadcasts 34
scalar FloodingNetwork.node[94].nic.mac1609_4 SentPackets 70
scalar FloodingNetwork.node[94].nic.mac1609_4 SentAcknowledgements 0
scalar FloodingNetwork.node[94].nic.mac1609_4 SNIRLostPackets 9
scalar FloodingNetwork.node[94].nic.mac1609_4 RXTXLostPackets 0
scalar FloodingNetwork.node[94].nic.mac1609_4 TotalLostPackets 9
scalar FloodingNetwork.node[94].nic.mac1609_4 DroppedPacketsInMac 0
scalar FloodingNetwork.node[94].nic.mac1609_4 TooLittleTime 0
scalar FloodingNetwork.node[94].nic.mac1609_4 TimesIntoBackoff 104
scalar FloodingNetwork.node[94].nic.mac1609_4 SlotsBackoff 99
scalar FloodingNetwork.node[94].nic.mac1609_4 NumInternalContention 0
scalar FloodingNetwork.node[94].nic.mac1609_4 totalBusyTime 0.005494
scalar FloodingNetwork.node[94].veinsmobility startTime 1.2
scalar FloodingNetwork.node[94].veinsmobility totalTime 198.1
scalar FloodingNetwork.node[94].veinsmobility stopTime 199.4
scalar FloodingNetwork.node[94].veinsmobility minSpeed 1.406550415246
scalar FloodingNetwork.node[94].veinsmobility maxSpeed 13.583156924747
scalar FloodingNetwork.node[94].veinsmobility totalDistance 2043.1562585802
scalar FloodingNetwork.node[94].veinsmobility totalCO2Emission 605.291397262
scalar FloodingNetwork.node[157].appl generatedWSMs 0
scalar FloodingNetwork.node[157].appl receivedWSMs 0
scalar FloodingNetwork.node[157].appl generatedBSMs 0
scalar FloodingNetwork.node[157].appl receivedBSMs 0
scalar FloodingNetwork.node[157].appl generatedWSAs 0
scalar FloodingNetwork.node[157].appl receivedWSAs 0
scalar FloodingNetwork.node[157].appl #duplicates 0
scalar FloodingNetwork.node[157].appl #numSent 0
scalar FloodingNetwork.node[157].appl #pktDelay 0
scalar FloodingNetwork.node[157].nic.phy80211p busyTime 0
scalar FloodingNetwork.node[157].nic.mac1609_4 ReceivedUnicastPackets 0
scalar FloodingNetwork.node[157].nic.mac1609_4 ReceivedBroadcasts 0
scalar FloodingNetwork.node[157].nic.mac1609_4 SentPackets 0
scalar FloodingNetwork.node[157].nic.mac1609_4 SentAcknowledgements 0
scalar FloodingNetwork.node[157].nic.mac1609_4 SNIRLostPackets 0
scalar FloodingNetwork.node[157].nic.mac1609_4 RXTXLostPackets 0
scalar FloodingNetwork.node[157].nic.mac1609_4 TotalLostPackets 0
scalar FloodingNetwork.node[157].nic.mac1609_4 DroppedPacketsInMac 0
scalar FloodingNetwork.node[157].nic.mac1609_4 TooLittleTime 0
scalar FloodingNetwork.node[157].nic.mac1609_4 TimesIntoBackoff 0
scalar FloodingNetwork.node[157].nic.mac1609_4 SlotsBackoff 0
scalar FloodingNetwork.node[157].nic.mac1609_4 NumInternalContention 0
scalar FloodingNetwork.node[157].nic.mac1609_4 totalBusyTime 0
scalar FloodingNetwork.node[157].veinsmobility startTime 161.6
scalar FloodingNetwork.node[157].veinsmobility totalTime 38.4
scalar FloodingNetwork.node[157].veinsmobility stopTime 200
scalar FloodingNetwork.node[157].veinsmobility minSpeed 3.2649640821913
scalar FloodingNetwork.node[157].veinsmobility maxSpeed 14.735017260288
scalar FloodingNetwork.node[157].veinsmobility totalDistance 410.76412069602
scalar FloodingNetwork.node[157].veinsmobility totalCO2Emission 117.40764914035
[...]
scalar FloodingNetwork.node[181].appl receivedWSAs 0
scalar FloodingNetwork.node[181].appl #duplicates 0
scalar FloodingNetwork.node[181].appl #numSent 0
scalar FloodingNetwork.node[181].appl #pktDelay 0
scalar FloodingNetwork.node[181].nic.phy80211p busyTime 0
scalar FloodingNetwork.node[181].nic.mac1609_4 ReceivedUnicastPackets 0
scalar FloodingNetwork.node[181].nic.mac1609_4 ReceivedBroadcasts 0
scalar FloodingNetwork.node[181].nic.mac1609_4 SentPackets 0
scalar FloodingNetwork.node[181].nic.mac1609_4 SentAcknowledgements 0
scalar FloodingNetwork.node[181].nic.mac1609_4 SNIRLostPackets 0
scalar FloodingNetwork.node[181].nic.mac1609_4 RXTXLostPackets 0
scalar FloodingNetwork.node[181].nic.mac1609_4 TotalLostPackets 0
scalar FloodingNetwork.node[181].nic.mac1609_4 DroppedPacketsInMac 0
scalar FloodingNetwork.node[181].nic.mac1609_4 TooLittleTime 0
scalar FloodingNetwork.node[181].nic.mac1609_4 TimesIntoBackoff 0
scalar FloodingNetwork.node[181].nic.mac1609_4 SlotsBackoff 0
scalar FloodingNetwork.node[181].nic.mac1609_4 NumInternalContention 0
scalar FloodingNetwork.node[181].nic.mac1609_4 totalBusyTime 0
scalar FloodingNetwork.node[181].veinsmobility startTime 192.8
scalar FloodingNetwork.node[181].veinsmobility totalTime 7.2
scalar FloodingNetwork.node[181].veinsmobility stopTime 200
scalar FloodingNetwork.node[181].veinsmobility minSpeed 13.821184553049
scalar FloodingNetwork.node[181].veinsmobility maxSpeed 13.926654416061
scalar FloodingNetwork.node[181].veinsmobility totalDistance 99.904270985517
scalar FloodingNetwork.node[181].veinsmobility totalCO2Emission 15.29977715726
scalar FloodingNetwork.node[121].appl generatedWSMs 0
scalar FloodingNetwork.node[121].appl receivedWSMs 0
scalar FloodingNetwork.node[121].appl generatedBSMs 5
scalar FloodingNetwork.node[121].appl receivedBSMs 0
scalar FloodingNetwork.node[121].appl generatedWSAs 0
scalar FloodingNetwork.node[121].appl receivedWSAs 0
scalar FloodingNetwork.node[121].appl #duplicates 3
scalar FloodingNetwork.node[121].appl #numSent 5
scalar FloodingNetwork.node[121].appl #pktDelay 184.15636823723
scalar FloodingNetwork.node[121].nic.phy80211p busyTime 1.9315895372233e-06
scalar FloodingNetwork.node[121].nic.mac1609_4 ReceivedUnicastPackets 0
scalar FloodingNetwork.node[121].nic.mac1609_4 ReceivedBroadcasts 4
scalar FloodingNetwork.node[121].nic.mac1609_4 SentPackets 5
scalar FloodingNetwork.node[121].nic.mac1609_4 SentAcknowledgements 0
scalar FloodingNetwork.node[121].nic.mac1609_4 SNIRLostPackets 4
scalar FloodingNetwork.node[121].nic.mac1609_4 RXTXLostPackets 0
scalar FloodingNetwork.node[121].nic.mac1609_4 TotalLostPackets 4
scalar FloodingNetwork.node[121].nic.mac1609_4 DroppedPacketsInMac 0
scalar FloodingNetwork.node[121].nic.mac1609_4 TooLittleTime 0
scalar FloodingNetwork.node[121].nic.mac1609_4 TimesIntoBackoff 7
scalar FloodingNetwork.node[121].nic.mac1609_4 SlotsBackoff 4
scalar FloodingNetwork.node[121].nic.mac1609_4 NumInternalContention 0
scalar FloodingNetwork.node[121].nic.mac1609_4 totalBusyTime 0.000629
scalar FloodingNetwork.node[121].veinsmobility startTime 1.2
scalar FloodingNetwork.node[121].veinsmobility totalTime 198.8
scalar FloodingNetwork.node[121].veinsmobility stopTime 200
scalar FloodingNetwork.node[121].veinsmobility minSpeed 0
scalar FloodingNetwork.node[121].veinsmobility maxSpeed 13.788225580391
scalar FloodingNetwork.node[121].veinsmobility totalDistance 1627.5351261461
scalar FloodingNetwork.node[121].veinsmobility totalCO2Emission 499.90689047573
scalar FloodingNetwork.node[123].appl generatedWSMs 0
scalar FloodingNetwork.node[123].appl receivedWSMs 0
scalar FloodingNetwork.node[123].appl generatedBSMs 5
scalar FloodingNetwork.node[123].appl receivedBSMs 0
scalar FloodingNetwork.node[123].appl generatedWSAs 0
scalar FloodingNetwork.node[123].appl receivedWSAs 0
scalar FloodingNetwork.node[123].appl #duplicates 5
scalar FloodingNetwork.node[123].appl #numSent 5
scalar FloodingNetwork.node[123].appl #pktDelay 186.05422308752
scalar FloodingNetwork.node[123].nic.phy80211p busyTime 1.4486921529175e-06
scalar FloodingNetwork.node[123].nic.mac1609_4 ReceivedUnicastPackets 0
scalar FloodingNetwork.node[123].nic.mac1609_4 ReceivedBroadcasts 6
scalar FloodingNetwork.node[123].nic.mac1609_4 SentPackets 5
scalar FloodingNetwork.node[123].nic.mac1609_4 SentAcknowledgements 0
scalar FloodingNetwork.node[123].nic.mac1609_4 SNIRLostPackets 0
scalar FloodingNetwork.node[123].nic.mac1609_4 RXTXLostPackets 0
scalar FloodingNetwork.node[123].nic.mac1609_4 TotalLostPackets 0
scalar FloodingNetwork.node[123].nic.mac1609_4 DroppedPacketsInMac 0
scalar FloodingNetwork.node[123].nic.mac1609_4 TooLittleTime 0
scalar FloodingNetwork.node[123].nic.mac1609_4 TimesIntoBackoff 7
scalar FloodingNetwork.node[123].nic.mac1609_4 SlotsBackoff 6
scalar FloodingNetwork.node[123].nic.mac1609_4 NumInternalContention 0
scalar FloodingNetwork.node[123].nic.mac1609_4 totalBusyTime 0.000533
scalar FloodingNetwork.node[123].veinsmobility startTime 1.2
scalar FloodingNetwork.node[123].veinsmobility totalTime 198.8
scalar FloodingNetwork.node[123].veinsmobility stopTime 200
scalar FloodingNetwork.node[123].veinsmobility minSpeed 0
scalar FloodingNetwork.node[123].veinsmobility maxSpeed 10.991863023268
scalar FloodingNetwork.node[123].veinsmobility totalDistance 1440.5251530164
scalar FloodingNetwork.node[123].veinsmobility totalCO2Emission 496.9387519012
scalar FloodingNetwork.node[149].appl generatedWSMs 0
scalar FloodingNetwork.node[149].appl receivedWSMs 0
scalar FloodingNetwork.node[149].appl generatedBSMs 34
scalar FloodingNetwork.node[149].appl receivedBSMs 0
scalar FloodingNetwork.node[149].appl generatedWSAs 0
scalar FloodingNetwork.node[149].appl receivedWSAs 0
scalar FloodingNetwork.node[149].appl #duplicates 42
scalar FloodingNetwork.node[149].appl #numSent 34
scalar FloodingNetwork.node[149].appl #pktDelay 102.57566379091
scalar FloodingNetwork.node[149].nic.phy80211p busyTime 1.2926829268293e-05
scalar FloodingNetwork.node[149].nic.mac1609_4 ReceivedUnicastPackets 0
scalar FloodingNetwork.node[149].nic.mac1609_4 ReceivedBroadcasts 43
scalar FloodingNetwork.node[149].nic.mac1609_4 SentPackets 34
scalar FloodingNetwork.node[149].nic.mac1609_4 SentAcknowledgements 0
scalar FloodingNetwork.node[149].nic.mac1609_4 SNIRLostPackets 10
scalar FloodingNetwork.node[149].nic.mac1609_4 RXTXLostPackets 0
scalar FloodingNetwork.node[149].nic.mac1609_4 TotalLostPackets 10
scalar FloodingNetwork.node[149].nic.mac1609_4 DroppedPacketsInMac 0
scalar FloodingNetwork.node[149].nic.mac1609_4 TooLittleTime 0
scalar FloodingNetwork.node[149].nic.mac1609_4 TimesIntoBackoff 51
scalar FloodingNetwork.node[149].nic.mac1609_4 SlotsBackoff 50
scalar FloodingNetwork.node[149].nic.mac1609_4 NumInternalContention 0
scalar FloodingNetwork.node[149].nic.mac1609_4 totalBusyTime 0.004162
scalar FloodingNetwork.node[149].veinsmobility startTime 3.2
scalar FloodingNetwork.node[149].veinsmobility totalTime 196.8
scalar FloodingNetwork.node[149].veinsmobility stopTime 200
scalar FloodingNetwork.node[149].veinsmobility minSpeed 0
scalar FloodingNetwork.node[149].veinsmobility maxSpeed 14.249458131628
scalar FloodingNetwork.node[149].veinsmobility totalDistance 1516.1165198288
scalar FloodingNetwork.node[149].veinsmobility totalCO2Emission 474.71175185609
scalar FloodingNetwork.node[124].appl generatedWSMs 0
scalar FloodingNetwork.node[124].appl receivedWSMs 0
scalar FloodingNetwork.node[124].appl generatedBSMs 0
scalar FloodingNetwork.node[124].appl receivedBSMs 0
scalar FloodingNetwork.node[124].appl generatedWSAs 0
scalar FloodingNetwork.node[124].appl receivedWSAs 0
scalar FloodingNetwork.node[124].appl #duplicates 0
scalar FloodingNetwork.node[124].appl #numSent 0
scalar FloodingNetwork.node[124].appl #pktDelay 0
scalar FloodingNetwork.node[124].nic.phy80211p busyTime 0
scalar FloodingNetwork.node[124].nic.mac1609_4 ReceivedUnicastPackets 0
scalar FloodingNetwork.node[124].nic.mac1609_4 ReceivedBroadcasts 0
scalar FloodingNetwork.node[124].nic.mac1609_4 SentPackets 0
scalar FloodingNetwork.node[124].nic.mac1609_4 SentAcknowledgements 0
scalar FloodingNetwork.node[124].nic.mac1609_4 SNIRLostPackets 0
scalar FloodingNetwork.node[124].nic.mac1609_4 RXTXLostPackets 0
scalar FloodingNetwork.node[124].nic.mac1609_4 TotalLostPackets 0
scalar FloodingNetwork.node[124].nic.mac1609_4 DroppedPacketsInMac 0
scalar FloodingNetwork.node[124].nic.mac1609_4 TooLittleTime 0
scalar FloodingNetwork.node[124].nic.mac1609_4 TimesIntoBackoff 0
scalar FloodingNetwork.node[124].nic.mac1609_4 SlotsBackoff 0
scalar FloodingNetwork.node[124].nic.mac1609_4 NumInternalContention 0
scalar FloodingNetwork.node[124].nic.mac1609_4 totalBusyTime 0
scalar FloodingNetwork.node[124].veinsmobility startTime 1.2
scalar FloodingNetwork.node[124].veinsmobility totalTime 198.8
scalar FloodingNetwork.node[124].veinsmobility stopTime 200
scalar FloodingNetwork.node[124].veinsmobility minSpeed 0.0081546454012964
scalar FloodingNetwork.node[124].veinsmobility maxSpeed 12.793150652341
scalar FloodingNetwork.node[124].veinsmobility totalDistance 1421.0643134584
scalar FloodingNetwork.node[124].veinsmobility totalCO2Emission 487.90813414238
scalar FloodingNetwork.node[125].appl generatedWSMs 0
scalar FloodingNetwork.node[125].appl receivedWSMs 0
scalar FloodingNetwork.node[125].appl generatedBSMs 51
scalar FloodingNetwork.node[125].appl receivedBSMs 0
scalar FloodingNetwork.node[125].appl generatedWSAs 0
scalar FloodingNetwork.node[125].appl receivedWSAs 0
scalar FloodingNetwork.node[125].appl #duplicates 38
scalar FloodingNetwork.node[125].appl #numSent 51
scalar FloodingNetwork.node[125].appl #pktDelay 77.272153110621
scalar FloodingNetwork.node[125].nic.phy80211p busyTime 1.2313883299799e-05
scalar FloodingNetwork.node[125].nic.mac1609_4 ReceivedUnicastPackets 0
scalar FloodingNetwork.node[125].nic.mac1609_4 ReceivedBroadcasts 39
scalar FloodingNetwork.node[125].nic.mac1609_4 SentPackets 51
scalar FloodingNetwork.node[125].nic.mac1609_4 SentAcknowledgements 0
scalar FloodingNetwork.node[125].nic.mac1609_4 SNIRLostPackets 12
scalar FloodingNetwork.node[125].nic.mac1609_4 RXTXLostPackets 0
scalar FloodingNetwork.node[125].nic.mac1609_4 TotalLostPackets 12
scalar FloodingNetwork.node[125].nic.mac1609_4 DroppedPacketsInMac 0
scalar FloodingNetwork.node[125].nic.mac1609_4 TooLittleTime 0
scalar FloodingNetwork.node[125].nic.mac1609_4 TimesIntoBackoff 78
scalar FloodingNetwork.node[125].nic.mac1609_4 SlotsBackoff 75
scalar FloodingNetwork.node[125].nic.mac1609_4 NumInternalContention 0
scalar FloodingNetwork.node[125].nic.mac1609_4 totalBusyTime 0.004899
scalar FloodingNetwork.node[125].veinsmobility startTime 1.2
scalar FloodingNetwork.node[125].veinsmobility totalTime 198.8
scalar FloodingNetwork.node[125].veinsmobility stopTime 200
scalar FloodingNetwork.node[125].veinsmobility minSpeed 3.1676654541097
scalar FloodingNetwork.node[125].veinsmobility maxSpeed 13.651625310513
scalar FloodingNetwork.node[125].veinsmobility totalDistance 1644.8105426434
scalar FloodingNetwork.node[125].veinsmobility totalCO2Emission 498.1839112967
scalar FloodingNetwork.node[127].appl generatedWSMs 0
scalar FloodingNetwork.node[127].appl receivedWSMs 0
scalar FloodingNetwork.node[127].appl generatedBSMs 5
scalar FloodingNetwork.node[127].appl receivedBSMs 0
scalar FloodingNetwork.node[127].appl generatedWSAs 0
scalar FloodingNetwork.node[127].appl receivedWSAs 0
scalar FloodingNetwork.node[127].appl #duplicates 3
scalar FloodingNetwork.node[127].appl #numSent 5
scalar FloodingNetwork.node[127].appl #pktDelay 186.69867095143
scalar FloodingNetwork.node[127].nic.phy80211p busyTime 9.6579476861167e-07
scalar FloodingNetwork.node[127].nic.mac1609_4 ReceivedUnicastPackets 0
scalar FloodingNetwork.node[127].nic.mac1609_4 ReceivedBroadcasts 4
scalar FloodingNetwork.node[127].nic.mac1609_4 SentPackets 5
scalar FloodingNetwork.node[127].nic.mac1609_4 SentAcknowledgements 0
scalar FloodingNetwork.node[127].nic.mac1609_4 SNIRLostPackets 0
scalar FloodingNetwork.node[127].nic.mac1609_4 RXTXLostPackets 0
scalar FloodingNetwork.node[127].nic.mac1609_4 TotalLostPackets 0
scalar FloodingNetwork.node[127].nic.mac1609_4 DroppedPacketsInMac 0
scalar FloodingNetwork.node[127].nic.mac1609_4 TooLittleTime 0
scalar FloodingNetwork.node[127].nic.mac1609_4 TimesIntoBackoff 8
scalar FloodingNetwork.node[127].nic.mac1609_4 SlotsBackoff 10
scalar FloodingNetwork.node[127].nic.mac1609_4 NumInternalContention 0
scalar FloodingNetwork.node[127].nic.mac1609_4 totalBusyTime 0.000437
scalar FloodingNetwork.node[127].veinsmobility startTime 1.2
scalar FloodingNetwork.node[127].veinsmobility totalTime 198.8
scalar FloodingNetwork.node[127].veinsmobility stopTime 200
scalar FloodingNetwork.node[127].veinsmobility minSpeed 0
scalar FloodingNetwork.node[127].veinsmobility maxSpeed 15.069254671359
scalar FloodingNetwork.node[127].veinsmobility totalDistance 1471.6307556378
scalar FloodingNetwork.node[127].veinsmobility totalCO2Emission 479.26503897111
scalar FloodingNetwork.node[161].appl generatedWSMs 0
scalar FloodingNetwork.node[161].appl receivedWSMs 0
scalar FloodingNetwork.node[161].appl generatedBSMs 12
scalar FloodingNetwork.node[161].appl receivedBSMs 0
scalar FloodingNetwork.node[161].appl generatedWSAs 0
scalar FloodingNetwork.node[161].appl receivedWSAs 0
scalar FloodingNetwork.node[161].appl #duplicates 12
scalar FloodingNetwork.node[161].appl #numSent 12
scalar FloodingNetwork.node[161].appl #pktDelay 171.36209378903
scalar FloodingNetwork.node[161].nic.phy80211p busyTime 2.5352112676056e-05
scalar FloodingNetwork.node[161].nic.mac1609_4 ReceivedUnicastPackets 0
scalar FloodingNetwork.node[161].nic.mac1609_4 ReceivedBroadcasts 13
scalar FloodingNetwork.node[161].nic.mac1609_4 SentPackets 12
scalar FloodingNetwork.node[161].nic.mac1609_4 SentAcknowledgements 0
scalar FloodingNetwork.node[161].nic.mac1609_4 SNIRLostPackets 2
scalar FloodingNetwork.node[161].nic.mac1609_4 RXTXLostPackets 1
scalar FloodingNetwork.node[161].nic.mac1609_4 TotalLostPackets 3
scalar FloodingNetwork.node[161].nic.mac1609_4 DroppedPacketsInMac 0
scalar FloodingNetwork.node[161].nic.mac1609_4 TooLittleTime 0
scalar FloodingNetwork.node[161].nic.mac1609_4 TimesIntoBackoff 19
scalar FloodingNetwork.node[161].nic.mac1609_4 SlotsBackoff 20
scalar FloodingNetwork.node[161].nic.mac1609_4 NumInternalContention 0
scalar FloodingNetwork.node[161].nic.mac1609_4 totalBusyTime 0.001308
scalar FloodingNetwork.node[161].veinsmobility startTime 171.6
scalar FloodingNetwork.node[161].veinsmobility totalTime 28.4
scalar FloodingNetwork.node[161].veinsmobility stopTime 200
scalar FloodingNetwork.node[161].veinsmobility minSpeed 3.1918579913489
scalar FloodingNetwork.node[161].veinsmobility maxSpeed 14.579429665777
scalar FloodingNetwork.node[161].veinsmobility totalDistance 296.42799379802
scalar FloodingNetwork.node[161].veinsmobility totalCO2Emission 60.98149935028
scalar FloodingNetwork.node[129].appl generatedWSMs 0
scalar FloodingNetwork.node[129].appl receivedWSMs 0
scalar FloodingNetwork.node[129].appl generatedBSMs 47
scalar FloodingNetwork.node[129].appl receivedBSMs 0
scalar FloodingNetwork.node[129].appl generatedWSAs 0
scalar FloodingNetwork.node[129].appl receivedWSAs 0
scalar FloodingNetwork.node[129].appl #duplicates 27
scalar FloodingNetwork.node[129].appl #numSent 47
scalar FloodingNetwork.node[129].appl #pktDelay 93.254286898379
scalar FloodingNetwork.node[129].nic.phy80211p busyTime 8.933601609658e-06
scalar FloodingNetwork.node[129].nic.mac1609_4 ReceivedUnicastPackets 0
scalar FloodingNetwork.node[129].nic.mac1609_4 ReceivedBroadcasts 28
scalar FloodingNetwork.node[129].nic.mac1609_4 SentPackets 47
scalar FloodingNetwork.node[129].nic.mac1609_4 SentAcknowledgements 0
scalar FloodingNetwork.node[129].nic.mac1609_4 SNIRLostPackets 9
scalar FloodingNetwork.node[129].nic.mac1609_4 RXTXLostPackets 0
scalar FloodingNetwork.node[129].nic.mac1609_4 TotalLostPackets 9
scalar FloodingNetwork.node[129].nic.mac1609_4 DroppedPacketsInMac 0
scalar FloodingNetwork.node[129].nic.mac1609_4 TooLittleTime 0
scalar FloodingNetwork.node[129].nic.mac1609_4 TimesIntoBackoff 70
scalar FloodingNetwork.node[129].nic.mac1609_4 SlotsBackoff 61
scalar FloodingNetwork.node[129].nic.mac1609_4 NumInternalContention 0
scalar FloodingNetwork.node[129].nic.mac1609_4 totalBusyTime 0.004079
scalar FloodingNetwork.node[129].veinsmobility startTime 1.2
scalar FloodingNetwork.node[129].veinsmobility totalTime 198.8
scalar FloodingNetwork.node[129].veinsmobility stopTime 200
scalar FloodingNetwork.node[129].veinsmobility minSpeed 3.1681795806016
scalar FloodingNetwork.node[129].veinsmobility maxSpeed 13.567301533169
scalar FloodingNetwork.node[129].veinsmobility totalDistance 1796.8264009148
scalar FloodingNetwork.node[129].veinsmobility totalCO2Emission 501.15590784994
scalar FloodingNetwork.node[130].appl generatedWSMs 0
scalar FloodingNetwork.node[130].appl receivedWSMs 0
scalar FloodingNetwork.node[130].appl generatedBSMs 0
scalar FloodingNetwork.node[130].appl receivedBSMs 0
scalar FloodingNetwork.node[130].appl generatedWSAs 0
scalar FloodingNetwork.node[130].appl receivedWSAs 0
scalar FloodingNetwork.node[130].appl #duplicates 0
scalar FloodingNetwork.node[130].appl #numSent 0
scalar FloodingNetwork.node[130].appl #pktDelay 0
scalar FloodingNetwork.node[130].nic.phy80211p busyTime 0
scalar FloodingNetwork.node[130].nic.mac1609_4 ReceivedUnicastPackets 0
scalar FloodingNetwork.node[130].nic.mac1609_4 ReceivedBroadcasts 0
scalar FloodingNetwork.node[130].nic.mac1609_4 SentPackets 0
scalar FloodingNetwork.node[130].nic.mac1609_4 SentAcknowledgements 0
scalar FloodingNetwork.node[130].nic.mac1609_4 SNIRLostPackets 0
scalar FloodingNetwork.node[130].nic.mac1609_4 RXTXLostPackets 0
scalar FloodingNetwork.node[130].nic.mac1609_4 TotalLostPackets 0
scalar FloodingNetwork.node[130].nic.mac1609_4 DroppedPacketsInMac 0
scalar FloodingNetwork.node[130].nic.mac1609_4 TooLittleTime 0
scalar FloodingNetwork.node[130].nic.mac1609_4 TimesIntoBackoff 0
scalar FloodingNetwork.node[130].nic.mac1609_4 SlotsBackoff 0
scalar FloodingNetwork.node[130].nic.mac1609_4 NumInternalContention 0
scalar FloodingNetwork.node[130].nic.mac1609_4 totalBusyTime 0
scalar FloodingNetwork.node[130].veinsmobility startTime 1.2
scalar FloodingNetwork.node[130].veinsmobility totalTime 198.8
scalar FloodingNetwork.node[130].veinsmobility stopTime 200
scalar FloodingNetwork.node[130].veinsmobility minSpeed 0.15
scalar FloodingNetwork.node[130].veinsmobility maxSpeed 11.226692139757
scalar FloodingNetwork.node[130].veinsmobility totalDistance 1454.8959374913
scalar FloodingNetwork.node[130].veinsmobility totalCO2Emission 501.20159446256
scalar FloodingNetwork.manager roiArea 0
scalar FloodingNetwork.rsu.appl generatedWSMs 0
scalar FloodingNetwork.rsu.appl receivedWSMs 0
scalar FloodingNetwork.rsu.appl generatedBSMs 1
scalar FloodingNetwork.rsu.appl receivedBSMs 0
scalar FloodingNetwork.rsu.appl generatedWSAs 0
scalar FloodingNetwork.rsu.appl receivedWSAs 0
scalar FloodingNetwork.rsu.nic.phy80211p busyTime 2.496e-05
scalar FloodingNetwork.rsu.nic.mac1609_4 ReceivedUnicastPackets 0
scalar FloodingNetwork.rsu.nic.mac1609_4 ReceivedBroadcasts 99
scalar FloodingNetwork.rsu.nic.mac1609_4 SentPackets 1
scalar FloodingNetwork.rsu.nic.mac1609_4 SentAcknowledgements 0
scalar FloodingNetwork.rsu.nic.mac1609_4 SNIRLostPackets 5
scalar FloodingNetwork.rsu.nic.mac1609_4 RXTXLostPackets 0
scalar FloodingNetwork.rsu.nic.mac1609_4 TotalLostPackets 5
scalar FloodingNetwork.rsu.nic.mac1609_4 DroppedPacketsInMac 0
scalar FloodingNetwork.rsu.nic.mac1609_4 TooLittleTime 0
scalar FloodingNetwork.rsu.nic.mac1609_4 TimesIntoBackoff 2
scalar FloodingNetwork.rsu.nic.mac1609_4 SlotsBackoff 1
scalar FloodingNetwork.rsu.nic.mac1609_4 NumInternalContention 0
scalar FloodingNetwork.rsu.nic.mac1609_4 totalBusyTime 0.004993
scalar FloodingNetwork.globalStat #carsReached 118

