file 44498804 1559718535                                        
version 2
run General-0-20190605-09:05:43-10484
attr configname General
attr datetime 20190605-09:05:43
attr experiment General
attr inifile omnetpp.ini
attr iterationvars ""
attr iterationvarsf ""
attr measurement ""
attr network FloodingNetwork
attr processid 10484
attr repetition 0
attr replication #0
attr resultdir results
attr runnumber 0
attr seedset 0
param **.debug false
param **.coreDebug false
param *.playgroundSizeX 3000m
param *.playgroundSizeY 2500m
param *.playgroundSizeZ 50m
param *.annotations.draw true
param *.obstacles.debug true
param *.obstacles.obstacles "xmldoc(\"config.xml\", \"//AnalogueModel[@type='SimpleObstacleShadowing']/obstacles\")"
param *.world.useTorus false
param *.world.use2D false
param *.manager.updateInterval 0.1s
param *.manager.host "\"localhost\""
param *.manager.port 9999
param *.manager.moduleType "\"org.car2x.veins.nodes.Car\""
param *.manager.moduleName "\"node\""
param *.manager.autoShutdown true
param *.manager.margin 25
param *.manager.launchConfig "xmldoc(\"manhattan.launchd.xml\")"
param *.vehicleInserter.numVehicles 150
param *.connectionManager.sendDirect true
param *.connectionManager.maxInterfDist 100m
param *.connectionManager.drawMaxIntfDist false
param *.**.nic.mac1609_4.useServiceChannel true
param *.**.nic.mac1609_4.txPower 20mW
param *.**.nic.mac1609_4.bitrate 6Mbps
param *.**.nic.phy80211p.minPowerLevel -110dBm
param *.**.nic.phy80211p.useNoiseFloor true
param *.**.nic.phy80211p.noiseFloor -98dBm
param *.**.nic.phy80211p.decider "xmldoc(\"config.xml\")"
param *.**.nic.phy80211p.analogueModels "xmldoc(\"config.xml\")"
param *.**.nic.phy80211p.usePropagationDelay true
param *.**.nic.phy80211p.antenna "xmldoc(\"antenna.xml\", \"/root/Antenna[@id='monopole']\")"
param *.rsu.applType "\"FloodingRSU\""
param *.rsu.appl.headerLength 80bit
param *.rsu[*].appl.debug false
param *.rsu[*].appl.headerLength "88 bit"
param *.rsu[*].appl.dataLengthBits "512 bit"
param *.rsu[*].appl.sendBeacons false
param *.rsu[*].appl.dataOnSch true
param *.rsu[*].appl.sendData true
param *.rsu.nic.phy80211p.useNoiseFloor true
param *.rsu.nic.phy80211p.noiseFloor -98dBm
param *.rsu.nic.phy80211p.minPowerLevel -110dBm
param *.rsu.nic.phy80211p.analogueModels "xmldoc(\"config.xml\")"
param *.rsu.nic.phy80211p.decider "xmldoc(\"config.xml\")"
param *.rsu.nic.phy80211p.sensitivity -89dBm
param *.rsu.nic.mac1609_4.txPower 20mW
param *.rsu.mobility.x 1420
param *.rsu.mobility.y 1250
param *.rsu.mobility.z 1.895
param *.node[*].applType "\"MySimpleFlooding\""
param *.node[*].appl.debug false
param *.node[*].appl.headerLength "88 bit"
param *.node[*].appl.dataLengthBits "512 bit"
param *.node[*].appl.sendBeacons false
param *.node[*].appl.dataOnSch true
param *.node[*].appl.sendData true
param *.node[*].appl.beaconInterval 1s
param *.node[*].appl.beaconPriority 3
param *.node[*].appl.dataPriority 2
param *.node[*].appl.maxOffset 0.005s
param *.node.appl.dataOnSch false
param *.rsu.appl.dataOnSch false
param *.node[*].veinsmobilityType.debug false
param *.node[*].veinsmobility.x 0
param *.node[*].veinsmobility.y 0
param *.node[*].veinsmobility.z 1.895

vector 0 FloodingNetwork.node[0].veinsmobility posx ETV
vector 1 FloodingNetwork.node[0].veinsmobility posy ETV
vector 2 FloodingNetwork.node[1].veinsmobility posx ETV
vector 3 FloodingNetwork.node[1].veinsmobility posy ETV
vector 4 FloodingNetwork.node[2].veinsmobility posx ETV
vector 5 FloodingNetwork.node[2].veinsmobility posy ETV
vector 6 FloodingNetwork.node[3].veinsmobility posx ETV
vector 7 FloodingNetwork.node[3].veinsmobility posy ETV
vector 8 FloodingNetwork.node[4].veinsmobility posx ETV
vector 9 FloodingNetwork.node[4].veinsmobility posy ETV
vector 10 FloodingNetwork.node[5].veinsmobility posx ETV
vector 11 FloodingNetwork.node[5].veinsmobility posy ETV
vector 12 FloodingNetwork.node[6].veinsmobility posx ETV
vector 13 FloodingNetwork.node[6].veinsmobility posy ETV
vector 14 FloodingNetwork.node[7].veinsmobility posx ETV
vector 15 FloodingNetwork.node[7].veinsmobility posy ETV
vector 16 FloodingNetwork.node[8].veinsmobility posx ETV
vector 17 FloodingNetwork.node[8].veinsmobility posy ETV
vector 18 FloodingNetwork.node[9].veinsmobility posx ETV
vector 19 FloodingNetwork.node[9].veinsmobility posy ETV
vector 20 FloodingNetwork.node[10].veinsmobility posx ETV
vector 21 FloodingNetwork.node[10].veinsmobility posy ETV
vector 22 FloodingNetwork.node[11].veinsmobility posx ETV
vector 23 FloodingNetwork.node[11].veinsmobility posy ETV
vector 24 FloodingNetwork.node[12].veinsmobility posx ETV
vector 25 FloodingNetwork.node[12].veinsmobility posy ETV
vector 26 FloodingNetwork.node[13].veinsmobility posx ETV
vector 27 FloodingNetwork.node[13].veinsmobility posy ETV
vector 28 FloodingNetwork.node[14].veinsmobility posx ETV
vector 29 FloodingNetwork.node[14].veinsmobility posy ETV
vector 30 FloodingNetwork.node[15].veinsmobility posx ETV
vector 31 FloodingNetwork.node[15].veinsmobility posy ETV
vector 32 FloodingNetwork.node[16].veinsmobility posx ETV
vector 33 FloodingNetwork.node[16].veinsmobility posy ETV
vector 34 FloodingNetwork.node[17].veinsmobility posx ETV
vector 35 FloodingNetwork.node[17].veinsmobility posy ETV
vector 36 FloodingNetwork.node[18].veinsmobility posx ETV
vector 37 FloodingNetwork.node[18].veinsmobility posy ETV
vector 38 FloodingNetwork.node[19].veinsmobility posx ETV
vector 39 FloodingNetwork.node[19].veinsmobility posy ETV
vector 40 FloodingNetwork.node[20].veinsmobility posx ETV
vector 41 FloodingNetwork.node[20].veinsmobility posy ETV
vector 42 FloodingNetwork.node[21].veinsmobility posx ETV
vector 43 FloodingNetwork.node[21].veinsmobility posy ETV
vector 44 FloodingNetwork.node[22].veinsmobility posx ETV
vector 45 FloodingNetwork.node[22].veinsmobility posy ETV
vector 46 FloodingNetwork.node[23].veinsmobility posx ETV
vector 47 FloodingNetwork.node[23].veinsmobility posy ETV
vector 48 FloodingNetwork.node[24].veinsmobility posx ETV
vector 49 FloodingNetwork.node[24].veinsmobility posy ETV
vector 50 FloodingNetwork.node[25].veinsmobility posx ETV
vector 51 FloodingNetwork.node[25].veinsmobility posy ETV
vector 52 FloodingNetwork.node[26].veinsmobility posx ETV
vector 53 FloodingNetwork.node[26].veinsmobility posy ETV
vector 54 FloodingNetwork.node[27].veinsmobility posx ETV
vector 55 FloodingNetwork.node[27].veinsmobility posy ETV
vector 56 FloodingNetwork.node[28].veinsmobility posx ETV
vector 57 FloodingNetwork.node[28].veinsmobility posy ETV
vector 58 FloodingNetwork.node[29].veinsmobility posx ETV
vector 59 FloodingNetwork.node[29].veinsmobility posy ETV
vector 60 FloodingNetwork.node[30].veinsmobility posx ETV
vector 61 FloodingNetwork.node[30].veinsmobility posy ETV
vector 62 FloodingNetwork.node[31].veinsmobility posx ETV
vector 63 FloodingNetwork.node[31].veinsmobility posy ETV
vector 64 FloodingNetwork.node[32].veinsmobility posx ETV
vector 65 FloodingNetwork.node[32].veinsmobility posy ETV
vector 66 FloodingNetwork.node[33].veinsmobility posx ETV
vector 67 FloodingNetwork.node[33].veinsmobility posy ETV
vector 68 FloodingNetwork.node[34].veinsmobility posx ETV
vector 69 FloodingNetwork.node[34].veinsmobility posy ETV
vector 70 FloodingNetwork.node[35].veinsmobility posx ETV
vector 71 FloodingNetwork.node[35].veinsmobility posy ETV
vector 72 FloodingNetwork.node[36].veinsmobility posx ETV
vector 73 FloodingNetwork.node[36].veinsmobility posy ETV
vector 74 FloodingNetwork.node[37].veinsmobility posx ETV
vector 75 FloodingNetwork.node[37].veinsmobility posy ETV
vector 76 FloodingNetwork.node[38].veinsmobility posx ETV
vector 77 FloodingNetwork.node[38].veinsmobility posy ETV
vector 78 FloodingNetwork.node[39].veinsmobility posx ETV
vector 79 FloodingNetwork.node[39].veinsmobility posy ETV
vector 80 FloodingNetwork.node[40].veinsmobility posx ETV
vector 81 FloodingNetwork.node[40].veinsmobility posy ETV
vector 82 FloodingNetwork.node[41].veinsmobility posx ETV
vector 83 FloodingNetwork.node[41].veinsmobility posy ETV
vector 84 FloodingNetwork.node[42].veinsmobility posx ETV
vector 85 FloodingNetwork.node[42].veinsmobility posy ETV
vector 86 FloodingNetwork.node[43].veinsmobility posx ETV
vector 87 FloodingNetwork.node[43].veinsmobility posy ETV
vector 88 FloodingNetwork.node[44].veinsmobility posx ETV
vector 89 FloodingNetwork.node[44].veinsmobility posy ETV
vector 90 FloodingNetwork.node[45].veinsmobility posx ETV
vector 91 FloodingNetwork.node[45].veinsmobility posy ETV
vector 92 FloodingNetwork.node[46].veinsmobility posx ETV
vector 93 FloodingNetwork.node[46].veinsmobility posy ETV
vector 94 FloodingNetwork.node[47].veinsmobility posx ETV
vector 95 FloodingNetwork.node[47].veinsmobility posy ETV
vector 96 FloodingNetwork.node[48].veinsmobility posx ETV
vector 97 FloodingNetwork.node[48].veinsmobility posy ETV
vector 98 FloodingNetwork.node[49].veinsmobility posx ETV
vector 99 FloodingNetwork.node[49].veinsmobility posy ETV
vector 100 FloodingNetwork.node[50].veinsmobility posx ETV
vector 101 FloodingNetwork.node[50].veinsmobility posy ETV
vector 102 FloodingNetwork.node[51].veinsmobility posx ETV
vector 103 FloodingNetwork.node[51].veinsmobility posy ETV
vector 104 FloodingNetwork.node[52].veinsmobility posx ETV
vector 105 FloodingNetwork.node[52].veinsmobility posy ETV
vector 106 FloodingNetwork.node[53].veinsmobility posx ETV
vector 107 FloodingNetwork.node[53].veinsmobility posy ETV
vector 108 FloodingNetwork.node[54].veinsmobility posx ETV
vector 109 FloodingNetwork.node[54].veinsmobility posy ETV
vector 110 FloodingNetwork.node[55].veinsmobility posx ETV
vector 111 FloodingNetwork.node[55].veinsmobility posy ETV
vector 112 FloodingNetwork.node[56].veinsmobility posx ETV
vector 113 FloodingNetwork.node[56].veinsmobility posy ETV
vector 114 FloodingNetwork.node[57].veinsmobility posx ETV
vector 115 FloodingNetwork.node[57].veinsmobility posy ETV
vector 116 FloodingNetwork.node[58].veinsmobility posx ETV
vector 117 FloodingNetwork.node[58].veinsmobility posy ETV
vector 118 FloodingNetwork.node[59].veinsmobility posx ETV
vector 119 FloodingNetwork.node[59].veinsmobility posy ETV
vector 120 FloodingNetwork.node[60].veinsmobility posx ETV
vector 121 FloodingNetwork.node[60].veinsmobility posy ETV
vector 122 FloodingNetwork.node[61].veinsmobility posx ETV
vector 123 FloodingNetwork.node[61].veinsmobility posy ETV
vector 124 FloodingNetwork.node[62].veinsmobility posx ETV
vector 125 FloodingNetwork.node[62].veinsmobility posy ETV
vector 126 FloodingNetwork.node[63].veinsmobility posx ETV
vector 127 FloodingNetwork.node[63].veinsmobility posy ETV
vector 128 FloodingNetwork.node[64].veinsmobility posx ETV
vector 129 FloodingNetwork.node[64].veinsmobility posy ETV
vector 130 FloodingNetwork.node[65].veinsmobility posx ETV
vector 131 FloodingNetwork.node[65].veinsmobility posy ETV
vector 132 FloodingNetwork.node[66].veinsmobility posx ETV
vector 133 FloodingNetwork.node[66].veinsmobility posy ETV
vector 134 FloodingNetwork.node[67].veinsmobility posx ETV
vector 135 FloodingNetwork.node[67].veinsmobility posy ETV
vector 136 FloodingNetwork.node[68].veinsmobility posx ETV
vector 137 FloodingNetwork.node[68].veinsmobility posy ETV
vector 138 FloodingNetwork.node[69].veinsmobility posx ETV
vector 139 FloodingNetwork.node[69].veinsmobility posy ETV
vector 140 FloodingNetwork.node[70].veinsmobility posx ETV
vector 141 FloodingNetwork.node[70].veinsmobility posy ETV
vector 142 FloodingNetwork.node[71].veinsmobility posx ETV
vector 143 FloodingNetwork.node[71].veinsmobility posy ETV
vector 144 FloodingNetwork.node[72].veinsmobility posx ETV
vector 145 FloodingNetwork.node[72].veinsmobility posy ETV
vector 146 FloodingNetwork.node[73].veinsmobility posx ETV
vector 147 FloodingNetwork.node[73].veinsmobility posy ETV
vector 148 FloodingNetwork.node[74].veinsmobility posx ETV
vector 149 FloodingNetwork.node[74].veinsmobility posy ETV
vector 150 FloodingNetwork.node[75].veinsmobility posx ETV
vector 151 FloodingNetwork.node[75].veinsmobility posy ETV
vector 152 FloodingNetwork.node[76].veinsmobility posx ETV
vector 153 FloodingNetwork.node[76].veinsmobility posy ETV
vector 154 FloodingNetwork.node[77].veinsmobility posx ETV
vector 155 FloodingNetwork.node[77].veinsmobility posy ETV
vector 156 FloodingNetwork.node[78].veinsmobility posx ETV
vector 157 FloodingNetwork.node[78].veinsmobility posy ETV
vector 158 FloodingNetwork.node[79].veinsmobility posx ETV
vector 159 FloodingNetwork.node[79].veinsmobility posy ETV
vector 160 FloodingNetwork.node[80].veinsmobility posx ETV
vector 161 FloodingNetwork.node[80].veinsmobility posy ETV
vector 162 FloodingNetwork.node[81].veinsmobility posx ETV
vector 163 FloodingNetwork.node[81].veinsmobility posy ETV
vector 164 FloodingNetwork.node[82].veinsmobility posx ETV
vector 165 FloodingNetwork.node[82].veinsmobility posy ETV
vector 166 FloodingNetwork.node[83].veinsmobility posx ETV
vector 167 FloodingNetwork.node[83].veinsmobility posy ETV
vector 168 FloodingNetwork.node[84].veinsmobility posx ETV
vector 169 FloodingNetwork.node[84].veinsmobility posy ETV
vector 170 FloodingNetwork.node[85].veinsmobility posx ETV
vector 171 FloodingNetwork.node[85].veinsmobility posy ETV
vector 172 FloodingNetwork.node[86].veinsmobility posx ETV
vector 173 FloodingNetwork.node[86].veinsmobility posy ETV
vector 174 FloodingNetwork.node[87].veinsmobility posx ETV
vector 175 FloodingNetwork.node[87].veinsmobility posy ETV
vector 176 FloodingNetwork.node[88].veinsmobility posx ETV
vector 177 FloodingNetwork.node[88].veinsmobility posy ETV
vector 178 FloodingNetwork.node[89].veinsmobility posx ETV
vector 179 FloodingNetwork.node[89].veinsmobility posy ETV
vector 180 FloodingNetwork.node[90].veinsmobility posx ETV
vector 181 FloodingNetwork.node[90].veinsmobility posy ETV
vector 182 FloodingNetwork.node[91].veinsmobility posx ETV
vector 183 FloodingNetwork.node[91].veinsmobility posy ETV
vector 184 FloodingNetwork.node[92].veinsmobility posx ETV
vector 185 FloodingNetwork.node[92].veinsmobility posy ETV
vector 186 FloodingNetwork.node[93].veinsmobility posx ETV
vector 187 FloodingNetwork.node[93].veinsmobility posy ETV
vector 188 FloodingNetwork.node[94].veinsmobility posx ETV
vector 189 FloodingNetwork.node[94].veinsmobility posy ETV
vector 190 FloodingNetwork.node[95].veinsmobility posx ETV
vector 191 FloodingNetwork.node[95].veinsmobility posy ETV
vector 192 FloodingNetwork.node[96].veinsmobility posx ETV
vector 193 FloodingNetwork.node[96].veinsmobility posy ETV
vector 194 FloodingNetwork.node[97].veinsmobility posx ETV
vector 195 FloodingNetwork.node[97].veinsmobility posy ETV
vector 196 FloodingNetwork.node[98].veinsmobility posx ETV
vector 197 FloodingNetwork.node[98].veinsmobility posy ETV
vector 198 FloodingNetwork.node[99].veinsmobility posx ETV
vector 199 FloodingNetwork.node[99].veinsmobility posy ETV
vector 200 FloodingNetwork.node[100].veinsmobility posx ETV
vector 201 FloodingNetwork.node[100].veinsmobility posy ETV
vector 202 FloodingNetwork.node[101].veinsmobility posx ETV
vector 203 FloodingNetwork.node[101].veinsmobility posy ETV
vector 204 FloodingNetwork.node[102].veinsmobility posx ETV
vector 205 FloodingNetwork.node[102].veinsmobility posy ETV
vector 206 FloodingNetwork.node[103].veinsmobility posx ETV
vector 207 FloodingNetwork.node[103].veinsmobility posy ETV
vector 208 FloodingNetwork.node[104].veinsmobility posx ETV
vector 209 FloodingNetwork.node[104].veinsmobility posy ETV
vector 210 FloodingNetwork.node[105].veinsmobility posx ETV
vector 211 FloodingNetwork.node[105].veinsmobility posy ETV
vector 212 FloodingNetwork.node[106].veinsmobility posx ETV
vector 213 FloodingNetwork.node[106].veinsmobility posy ETV
vector 214 FloodingNetwork.node[107].veinsmobility posx ETV
vector 215 FloodingNetwork.node[107].veinsmobility posy ETV
vector 216 FloodingNetwork.node[108].veinsmobility posx ETV
vector 217 FloodingNetwork.node[108].veinsmobility posy ETV
vector 218 FloodingNetwork.node[109].veinsmobility posx ETV
vector 219 FloodingNetwork.node[109].veinsmobility posy ETV
vector 220 FloodingNetwork.node[110].veinsmobility posx ETV
vector 221 FloodingNetwork.node[110].veinsmobility posy ETV
vector 222 FloodingNetwork.node[111].veinsmobility posx ETV
vector 223 FloodingNetwork.node[111].veinsmobility posy ETV
vector 224 FloodingNetwork.node[112].veinsmobility posx ETV
vector 225 FloodingNetwork.node[112].veinsmobility posy ETV
vector 226 FloodingNetwork.node[113].veinsmobility posx ETV
vector 227 FloodingNetwork.node[113].veinsmobility posy ETV
vector 228 FloodingNetwork.node[114].veinsmobility posx ETV
vector 229 FloodingNetwork.node[114].veinsmobility posy ETV
vector 230 FloodingNetwork.node[115].veinsmobility posx ETV
vector 231 FloodingNetwork.node[115].veinsmobility posy ETV
vector 232 FloodingNetwork.node[116].veinsmobility posx ETV
vector 233 FloodingNetwork.node[116].veinsmobility posy ETV
vector 234 FloodingNetwork.node[117].veinsmobility posx ETV
vector 235 FloodingNetwork.node[117].veinsmobility posy ETV
vector 236 FloodingNetwork.node[118].veinsmobility posx ETV
vector 237 FloodingNetwork.node[118].veinsmobility posy ETV
vector 238 FloodingNetwork.node[119].veinsmobility posx ETV
vector 239 FloodingNetwork.node[119].veinsmobility posy ETV
vector 240 FloodingNetwork.node[120].veinsmobility posx ETV
vector 241 FloodingNetwork.node[120].veinsmobility posy ETV
vector 242 FloodingNetwork.node[121].veinsmobility posx ETV
vector 243 FloodingNetwork.node[121].veinsmobility posy ETV
vector 244 FloodingNetwork.node[122].veinsmobility posx ETV
vector 245 FloodingNetwork.node[122].veinsmobility posy ETV
vector 246 FloodingNetwork.node[123].veinsmobility posx ETV
vector 247 FloodingNetwork.node[123].veinsmobility posy ETV
vector 248 FloodingNetwork.node[124].veinsmobility posx ETV
vector 249 FloodingNetwork.node[124].veinsmobility posy ETV
vector 250 FloodingNetwork.node[125].veinsmobility posx ETV
vector 251 FloodingNetwork.node[125].veinsmobility posy ETV
vector 252 FloodingNetwork.node[126].veinsmobility posx ETV
vector 253 FloodingNetwork.node[126].veinsmobility posy ETV
vector 254 FloodingNetwork.node[127].veinsmobility posx ETV
vector 255 FloodingNetwork.node[127].veinsmobility posy ETV
vector 256 FloodingNetwork.node[128].veinsmobility posx ETV
vector 257 FloodingNetwork.node[128].veinsmobility posy ETV
vector 258 FloodingNetwork.node[129].veinsmobility posx ETV
vector 259 FloodingNetwork.node[129].veinsmobility posy ETV
vector 260 FloodingNetwork.node[130].veinsmobility posx ETV
vector 261 FloodingNetwork.node[130].veinsmobility posy ETV
vector 262 FloodingNetwork.node[0].veinsmobility speed ETV
vector 263 FloodingNetwork.node[1].veinsmobility speed ETV
vector 264 FloodingNetwork.node[2].veinsmobility speed ETV
vector 265 FloodingNetwork.node[3].veinsmobility speed ETV
vector 266 FloodingNetwork.node[4].veinsmobility speed ETV
vector 267 FloodingNetwork.node[5].veinsmobility speed ETV
vector 268 FloodingNetwork.node[6].veinsmobility speed ETV
vector 269 FloodingNetwork.node[7].veinsmobility speed ETV
vector 270 FloodingNetwork.node[8].veinsmobility speed ETV
vector 271 FloodingNetwork.node[9].veinsmobility speed ETV
vector 272 FloodingNetwork.node[10].veinsmobility speed ETV
vector 273 FloodingNetwork.node[11].veinsmobility speed ETV
vector 274 FloodingNetwork.node[12].veinsmobility speed ETV
vector 275 FloodingNetwork.node[13].veinsmobility speed ETV
vector 276 FloodingNetwork.node[14].veinsmobility speed ETV
vector 277 FloodingNetwork.node[15].veinsmobility speed ETV
vector 278 FloodingNetwork.node[16].veinsmobility speed ETV
vector 279 FloodingNetwork.node[17].veinsmobility speed ETV
vector 280 FloodingNetwork.node[18].veinsmobility speed ETV
vector 281 FloodingNetwork.node[19].veinsmobility speed ETV
vector 282 FloodingNetwork.node[20].veinsmobility speed ETV
vector 283 FloodingNetwork.node[21].veinsmobility speed ETV
vector 284 FloodingNetwork.node[22].veinsmobility speed ETV
vector 285 FloodingNetwork.node[23].veinsmobility speed ETV
vector 286 FloodingNetwork.node[24].veinsmobility speed ETV
vector 287 FloodingNetwork.node[25].veinsmobility speed ETV
vector 288 FloodingNetwork.node[26].veinsmobility speed ETV
vector 289 FloodingNetwork.node[27].veinsmobility speed ETV
vector 290 FloodingNetwork.node[28].veinsmobility speed ETV
vector 291 FloodingNetwork.node[29].veinsmobility speed ETV
vector 292 FloodingNetwork.node[30].veinsmobility speed ETV
vector 293 FloodingNetwork.node[31].veinsmobility speed ETV
vector 294 FloodingNetwork.node[32].veinsmobility speed ETV
vector 295 FloodingNetwork.node[33].veinsmobility speed ETV
vector 296 FloodingNetwork.node[34].veinsmobility speed ETV
vector 297 FloodingNetwork.node[35].veinsmobility speed ETV
vector 298 FloodingNetwork.node[36].veinsmobility speed ETV
vector 299 FloodingNetwork.node[37].veinsmobility speed ETV
vector 300 FloodingNetwork.node[38].veinsmobility speed ETV
vector 301 FloodingNetwork.node[39].veinsmobility speed ETV
vector 302 FloodingNetwork.node[40].veinsmobility speed ETV
vector 303 FloodingNetwork.node[41].veinsmobility speed ETV
vector 304 FloodingNetwork.node[42].veinsmobility speed ETV
vector 305 FloodingNetwork.node[43].veinsmobility speed ETV
vector 306 FloodingNetwork.node[44].veinsmobility speed ETV
vector 307 FloodingNetwork.node[45].veinsmobility speed ETV
vector 308 FloodingNetwork.node[46].veinsmobility speed ETV
vector 309 FloodingNetwork.node[47].veinsmobility speed ETV
vector 310 FloodingNetwork.node[48].veinsmobility speed ETV
vector 311 FloodingNetwork.node[49].veinsmobility speed ETV
vector 312 FloodingNetwork.node[50].veinsmobility speed ETV
vector 313 FloodingNetwork.node[51].veinsmobility speed ETV
vector 314 FloodingNetwork.node[52].veinsmobility speed ETV
vector 315 FloodingNetwork.node[53].veinsmobility speed ETV
vector 316 FloodingNetwork.node[54].veinsmobility speed ETV
vector 317 FloodingNetwork.node[55].veinsmobility speed ETV
vector 318 FloodingNetwork.node[56].veinsmobility speed ETV
vector 319 FloodingNetwork.node[57].veinsmobility speed ETV
vector 320 FloodingNetwork.node[58].veinsmobility speed ETV
vector 321 FloodingNetwork.node[59].veinsmobility speed ETV
vector 322 FloodingNetwork.node[60].veinsmobility speed ETV
vector 323 FloodingNetwork.node[61].veinsmobility speed ETV
vector 324 FloodingNetwork.node[62].veinsmobility speed ETV
vector 325 FloodingNetwork.node[63].veinsmobility speed ETV
vector 326 FloodingNetwork.node[64].veinsmobility speed ETV
vector 327 FloodingNetwork.node[65].veinsmobility speed ETV
vector 328 FloodingNetwork.node[66].veinsmobility speed ETV
vector 329 FloodingNetwork.node[67].veinsmobility speed ETV
vector 330 FloodingNetwork.node[68].veinsmobility speed ETV
vector 331 FloodingNetwork.node[69].veinsmobility speed ETV
vector 332 FloodingNetwork.node[70].veinsmobility speed ETV
vector 333 FloodingNetwork.node[71].veinsmobility speed ETV
vector 334 FloodingNetwork.node[72].veinsmobility speed ETV
vector 335 FloodingNetwork.node[73].veinsmobility speed ETV
vector 336 FloodingNetwork.node[74].veinsmobility speed ETV
vector 337 FloodingNetwork.node[75].veinsmobility speed ETV
vector 338 FloodingNetwork.node[76].veinsmobility speed ETV
vector 339 FloodingNetwork.node[77].veinsmobility speed ETV
vector 340 FloodingNetwork.node[78].veinsmobility speed ETV
vector 341 FloodingNetwork.node[79].veinsmobility speed ETV
vector 342 FloodingNetwork.node[80].veinsmobility speed ETV
vector 343 FloodingNetwork.node[81].veinsmobility speed ETV
vector 344 FloodingNetwork.node[82].veinsmobility speed ETV
vector 345 FloodingNetwork.node[83].veinsmobility speed ETV
vector 346 FloodingNetwork.node[84].veinsmobility speed ETV
vector 347 FloodingNetwork.node[85].veinsmobility speed ETV
vector 348 FloodingNetwork.node[86].veinsmobility speed ETV
vector 349 FloodingNetwork.node[87].veinsmobility speed ETV
vector 350 FloodingNetwork.node[88].veinsmobility speed ETV
vector 351 FloodingNetwork.node[89].veinsmobility speed ETV
vector 352 FloodingNetwork.node[90].veinsmobility speed ETV
vector 353 FloodingNetwork.node[91].veinsmobility speed ETV
vector 354 FloodingNetwork.node[92].veinsmobility speed ETV
vector 355 FloodingNetwork.node[93].veinsmobility speed ETV
vector 356 FloodingNetwork.node[94].veinsmobility speed ETV
vector 357 FloodingNetwork.node[95].veinsmobility speed ETV
vector 358 FloodingNetwork.node[96].veinsmobility speed ETV
vector 359 FloodingNetwork.node[97].veinsmobility speed ETV
vector 360 FloodingNetwork.node[98].veinsmobility speed ETV
vector 361 FloodingNetwork.node[99].veinsmobility speed ETV
vector 362 FloodingNetwork.node[100].veinsmobility speed ETV
vector 363 FloodingNetwork.node[101].veinsmobility speed ETV
vector 364 FloodingNetwork.node[102].veinsmobility speed ETV
vector 365 FloodingNetwork.node[103].veinsmobility speed ETV
vector 366 FloodingNetwork.node[104].veinsmobility speed ETV
vector 367 FloodingNetwork.node[105].veinsmobility speed ETV
vector 368 FloodingNetwork.node[106].veinsmobility speed ETV
vector 369 FloodingNetwork.node[107].veinsmobility speed ETV
vector 370 FloodingNetwork.node[108].veinsmobility speed ETV
vector 371 FloodingNetwork.node[109].veinsmobility speed ETV
vector 372 FloodingNetwork.node[110].veinsmobility speed ETV
vector 373 FloodingNetwork.node[111].veinsmobility speed ETV
vector 374 FloodingNetwork.node[112].veinsmobility speed ETV
vector 375 FloodingNetwork.node[113].veinsmobility speed ETV
vector 376 FloodingNetwork.node[114].veinsmobility speed ETV
vector 377 FloodingNetwork.node[115].veinsmobility speed ETV
vector 378 FloodingNetwork.node[116].veinsmobility speed ETV
vector 379 FloodingNetwork.node[117].veinsmobility speed ETV
vector 380 FloodingNetwork.node[118].veinsmobility speed ETV
vector 381 FloodingNetwork.node[119].veinsmobility speed ETV
vector 382 FloodingNetwork.node[120].veinsmobility speed ETV
vector 383 FloodingNetwork.node[121].veinsmobility speed ETV
vector 384 FloodingNetwork.node[122].veinsmobility speed ETV
vector 385 FloodingNetwork.node[123].veinsmobility speed ETV
vector 386 FloodingNetwork.node[124].veinsmobility speed ETV
vector 387 FloodingNetwork.node[125].veinsmobility speed ETV
vector 388 FloodingNetwork.node[126].veinsmobility speed ETV
vector 389 FloodingNetwork.node[127].veinsmobility speed ETV
vector 390 FloodingNetwork.node[128].veinsmobility speed ETV
vector 391 FloodingNetwork.node[129].veinsmobility speed ETV
vector 392 FloodingNetwork.node[130].veinsmobility speed ETV
vector 393 FloodingNetwork.node[0].veinsmobility acceleration ETV
vector 394 FloodingNetwork.node[0].veinsmobility co2emission ETV
vector 395 FloodingNetwork.node[1].veinsmobility acceleration ETV
vector 396 FloodingNetwork.node[1].veinsmobility co2emission ETV
vector 397 FloodingNetwork.node[2].veinsmobility acceleration ETV
vector 398 FloodingNetwork.node[2].veinsmobility co2emission ETV
vector 399 FloodingNetwork.node[3].veinsmobility acceleration ETV
vector 400 FloodingNetwork.node[3].veinsmobility co2emission ETV
vector 401 FloodingNetwork.node[4].veinsmobility acceleration ETV
vector 402 FloodingNetwork.node[4].veinsmobility co2emission ETV
vector 403 FloodingNetwork.node[5].veinsmobility acceleration ETV
vector 404 FloodingNetwork.node[5].veinsmobility co2emission ETV
vector 405 FloodingNetwork.node[6].veinsmobility acceleration ETV
vector 406 FloodingNetwork.node[6].veinsmobility co2emission ETV
vector 407 FloodingNetwork.node[7].veinsmobility acceleration ETV
vector 408 FloodingNetwork.node[7].veinsmobility co2emission ETV
vector 409 FloodingNetwork.node[8].veinsmobility acceleration ETV
vector 410 FloodingNetwork.node[8].veinsmobility co2emission ETV
vector 411 FloodingNetwork.node[9].veinsmobility acceleration ETV
vector 412 FloodingNetwork.node[9].veinsmobility co2emission ETV
vector 413 FloodingNetwork.node[10].veinsmobility acceleration ETV
vector 414 FloodingNetwork.node[10].veinsmobility co2emission ETV
vector 415 FloodingNetwork.node[11].veinsmobility acceleration ETV
vector 416 FloodingNetwork.node[11].veinsmobility co2emission ETV
vector 417 FloodingNetwork.node[12].veinsmobility acceleration ETV
vector 418 FloodingNetwork.node[12].veinsmobility co2emission ETV
vector 419 FloodingNetwork.node[13].veinsmobility acceleration ETV
vector 420 FloodingNetwork.node[13].veinsmobility co2emission ETV
vector 421 FloodingNetwork.node[14].veinsmobility acceleration ETV
vector 422 FloodingNetwork.node[14].veinsmobility co2emission ETV
vector 423 FloodingNetwork.node[15].veinsmobility acceleration ETV
vector 424 FloodingNetwork.node[15].veinsmobility co2emission ETV
vector 425 FloodingNetwork.node[16].veinsmobility acceleration ETV
vector 426 FloodingNetwork.node[16].veinsmobility co2emission ETV
vector 427 FloodingNetwork.node[17].veinsmobility acceleration ETV
vector 428 FloodingNetwork.node[17].veinsmobility co2emission ETV
vector 429 FloodingNetwork.node[18].veinsmobility acceleration ETV
vector 430 FloodingNetwork.node[18].veinsmobility co2emission ETV
vector 431 FloodingNetwork.node[19].veinsmobility acceleration ETV
vector 432 FloodingNetwork.node[19].veinsmobility co2emission ETV
vector 433 FloodingNetwork.node[20].veinsmobility acceleration ETV
vector 434 FloodingNetwork.node[20].veinsmobility co2emission ETV
vector 435 FloodingNetwork.node[21].veinsmobility acceleration ETV
vector 436 FloodingNetwork.node[21].veinsmobility co2emission ETV
vector 437 FloodingNetwork.node[22].veinsmobility acceleration ETV
vector 438 FloodingNetwork.node[22].veinsmobility co2emission ETV
vector 439 FloodingNetwork.node[23].veinsmobility acceleration ETV
vector 440 FloodingNetwork.node[23].veinsmobility co2emission ETV
vector 441 FloodingNetwork.node[24].veinsmobility acceleration ETV
vector 442 FloodingNetwork.node[24].veinsmobility co2emission ETV
vector 443 FloodingNetwork.node[25].veinsmobility acceleration ETV
vector 444 FloodingNetwork.node[25].veinsmobility co2emission ETV
vector 445 FloodingNetwork.node[26].veinsmobility acceleration ETV
vector 446 FloodingNetwork.node[26].veinsmobility co2emission ETV
vector 447 FloodingNetwork.node[27].veinsmobility acceleration ETV
vector 448 FloodingNetwork.node[27].veinsmobility co2emission ETV
vector 449 FloodingNetwork.node[28].veinsmobility acceleration ETV
vector 450 FloodingNetwork.node[28].veinsmobility co2emission ETV
vector 451 FloodingNetwork.node[29].veinsmobility acceleration ETV
vector 452 FloodingNetwork.node[29].veinsmobility co2emission ETV
vector 453 FloodingNetwork.node[30].veinsmobility acceleration ETV
vector 454 FloodingNetwork.node[30].veinsmobility co2emission ETV
vector 455 FloodingNetwork.node[31].veinsmobility acceleration ETV
vector 456 FloodingNetwork.node[31].veinsmobility co2emission ETV
vector 457 FloodingNetwork.node[32].veinsmobility acceleration ETV
vector 458 FloodingNetwork.node[32].veinsmobility co2emission ETV
vector 459 FloodingNetwork.node[33].veinsmobility acceleration ETV
vector 460 FloodingNetwork.node[33].veinsmobility co2emission ETV
vector 461 FloodingNetwork.node[34].veinsmobility acceleration ETV
vector 462 FloodingNetwork.node[34].veinsmobility co2emission ETV
vector 463 FloodingNetwork.node[35].veinsmobility acceleration ETV
vector 464 FloodingNetwork.node[35].veinsmobility co2emission ETV
vector 465 FloodingNetwork.node[36].veinsmobility acceleration ETV
vector 466 FloodingNetwork.node[36].veinsmobility co2emission ETV
vector 467 FloodingNetwork.node[37].veinsmobility acceleration ETV
vector 468 FloodingNetwork.node[37].veinsmobility co2emission ETV
vector 469 FloodingNetwork.node[38].veinsmobility acceleration ETV
vector 470 FloodingNetwork.node[38].veinsmobility co2emission ETV
vector 471 FloodingNetwork.node[39].veinsmobility acceleration ETV
vector 472 FloodingNetwork.node[39].veinsmobility co2emission ETV
vector 473 FloodingNetwork.node[40].veinsmobility acceleration ETV
vector 474 FloodingNetwork.node[40].veinsmobility co2emission ETV
vector 475 FloodingNetwork.node[41].veinsmobility acceleration ETV
vector 476 FloodingNetwork.node[41].veinsmobility co2emission ETV
vector 477 FloodingNetwork.node[42].veinsmobility acceleration ETV
vector 478 FloodingNetwork.node[42].veinsmobility co2emission ETV
vector 479 FloodingNetwork.node[43].veinsmobility acceleration ETV
vector 480 FloodingNetwork.node[43].veinsmobility co2emission ETV
vector 481 FloodingNetwork.node[44].veinsmobility acceleration ETV
vector 482 FloodingNetwork.node[44].veinsmobility co2emission ETV
vector 483 FloodingNetwork.node[45].veinsmobility acceleration ETV
vector 484 FloodingNetwork.node[45].veinsmobility co2emission ETV
vector 485 FloodingNetwork.node[46].veinsmobility acceleration ETV
vector 486 FloodingNetwork.node[46].veinsmobility co2emission ETV
vector 487 FloodingNetwork.node[47].veinsmobility acceleration ETV
vector 488 FloodingNetwork.node[47].veinsmobility co2emission ETV
vector 489 FloodingNetwork.node[48].veinsmobility acceleration ETV
vector 490 FloodingNetwork.node[48].veinsmobility co2emission ETV
vector 491 FloodingNetwork.node[49].veinsmobility acceleration ETV
vector 492 FloodingNetwork.node[49].veinsmobility co2emission ETV
vector 493 FloodingNetwork.node[50].veinsmobility acceleration ETV
vector 494 FloodingNetwork.node[50].veinsmobility co2emission ETV
vector 495 FloodingNetwork.node[51].veinsmobility acceleration ETV
vector 496 FloodingNetwork.node[51].veinsmobility co2emission ETV
vector 497 FloodingNetwork.node[52].veinsmobility acceleration ETV
vector 498 FloodingNetwork.node[52].veinsmobility co2emission ETV
vector 499 FloodingNetwork.node[53].veinsmobility acceleration ETV
vector 500 FloodingNetwork.node[53].veinsmobility co2emission ETV
vector 501 FloodingNetwork.node[54].veinsmobility acceleration ETV
vector 502 FloodingNetwork.node[54].veinsmobility co2emission ETV
vector 503 FloodingNetwork.node[55].veinsmobility acceleration ETV
vector 504 FloodingNetwork.node[55].veinsmobility co2emission ETV
vector 505 FloodingNetwork.node[56].veinsmobility acceleration ETV
vector 506 FloodingNetwork.node[56].veinsmobility co2emission ETV
vector 507 FloodingNetwork.node[57].veinsmobility acceleration ETV
vector 508 FloodingNetwork.node[57].veinsmobility co2emission ETV
vector 509 FloodingNetwork.node[58].veinsmobility acceleration ETV
vector 510 FloodingNetwork.node[58].veinsmobility co2emission ETV
vector 511 FloodingNetwork.node[59].veinsmobility acceleration ETV
vector 512 FloodingNetwork.node[59].veinsmobility co2emission ETV
vector 513 FloodingNetwork.node[60].veinsmobility acceleration ETV
vector 514 FloodingNetwork.node[60].veinsmobility co2emission ETV
vector 515 FloodingNetwork.node[61].veinsmobility acceleration ETV
vector 516 FloodingNetwork.node[61].veinsmobility co2emission ETV
vector 517 FloodingNetwork.node[62].veinsmobility acceleration ETV
vector 518 FloodingNetwork.node[62].veinsmobility co2emission ETV
vector 519 FloodingNetwork.node[63].veinsmobility acceleration ETV
vector 520 FloodingNetwork.node[63].veinsmobility co2emission ETV
vector 521 FloodingNetwork.node[64].veinsmobility acceleration ETV
vector 522 FloodingNetwork.node[64].veinsmobility co2emission ETV
vector 523 FloodingNetwork.node[65].veinsmobility acceleration ETV
vector 524 FloodingNetwork.node[65].veinsmobility co2emission ETV
vector 525 FloodingNetwork.node[66].veinsmobility acceleration ETV
vector 526 FloodingNetwork.node[66].veinsmobility co2emission ETV
vector 527 FloodingNetwork.node[67].veinsmobility acceleration ETV
vector 528 FloodingNetwork.node[67].veinsmobility co2emission ETV
vector 529 FloodingNetwork.node[68].veinsmobility acceleration ETV
vector 530 FloodingNetwork.node[68].veinsmobility co2emission ETV
vector 531 FloodingNetwork.node[69].veinsmobility acceleration ETV
vector 532 FloodingNetwork.node[69].veinsmobility co2emission ETV
vector 533 FloodingNetwork.node[70].veinsmobility acceleration ETV
vector 534 FloodingNetwork.node[70].veinsmobility co2emission ETV
vector 535 FloodingNetwork.node[71].veinsmobility acceleration ETV
vector 536 FloodingNetwork.node[71].veinsmobility co2emission ETV
vector 537 FloodingNetwork.node[72].veinsmobility acceleration ETV
vector 538 FloodingNetwork.node[72].veinsmobility co2emission ETV
vector 539 FloodingNetwork.node[73].veinsmobility acceleration ETV
vector 540 FloodingNetwork.node[73].veinsmobility co2emission ETV
vector 541 FloodingNetwork.node[74].veinsmobility acceleration ETV
vector 542 FloodingNetwork.node[74].veinsmobility co2emission ETV
vector 543 FloodingNetwork.node[75].veinsmobility acceleration ETV
vector 544 FloodingNetwork.node[75].veinsmobility co2emission ETV
vector 545 FloodingNetwork.node[76].veinsmobility acceleration ETV
vector 546 FloodingNetwork.node[76].veinsmobility co2emission ETV
vector 547 FloodingNetwork.node[77].veinsmobility acceleration ETV
vector 548 FloodingNetwork.node[77].veinsmobility co2emission ETV
vector 549 FloodingNetwork.node[78].veinsmobility acceleration ETV
vector 550 FloodingNetwork.node[78].veinsmobility co2emission ETV
vector 551 FloodingNetwork.node[79].veinsmobility acceleration ETV
vector 552 FloodingNetwork.node[79].veinsmobility co2emission ETV
vector 553 FloodingNetwork.node[80].veinsmobility acceleration ETV
vector 554 FloodingNetwork.node[80].veinsmobility co2emission ETV
vector 555 FloodingNetwork.node[81].veinsmobility acceleration ETV
vector 556 FloodingNetwork.node[81].veinsmobility co2emission ETV
vector 557 FloodingNetwork.node[82].veinsmobility acceleration ETV
vector 558 FloodingNetwork.node[82].veinsmobility co2emission ETV
vector 559 FloodingNetwork.node[83].veinsmobility acceleration ETV
vector 560 FloodingNetwork.node[83].veinsmobility co2emission ETV
vector 561 FloodingNetwork.node[84].veinsmobility acceleration ETV
vector 562 FloodingNetwork.node[84].veinsmobility co2emission ETV
vector 563 FloodingNetwork.node[85].veinsmobility acceleration ETV
vector 564 FloodingNetwork.node[85].veinsmobility co2emission ETV
vector 565 FloodingNetwork.node[86].veinsmobility acceleration ETV
vector 566 FloodingNetwork.node[86].veinsmobility co2emission ETV
vector 567 FloodingNetwork.node[87].veinsmobility acceleration ETV
vector 568 FloodingNetwork.node[87].veinsmobility co2emission ETV
vector 569 FloodingNetwork.node[88].veinsmobility acceleration ETV
vector 570 FloodingNetwork.node[88].veinsmobility co2emission ETV
vector 571 FloodingNetwork.node[89].veinsmobility acceleration ETV
vector 572 FloodingNetwork.node[89].veinsmobility co2emission ETV
vector 573 FloodingNetwork.node[90].veinsmobility acceleration ETV
vector 574 FloodingNetwork.node[90].veinsmobility co2emission ETV
vector 575 FloodingNetwork.node[91].veinsmobility acceleration ETV
vector 576 FloodingNetwork.node[91].veinsmobility co2emission ETV
vector 577 FloodingNetwork.node[92].veinsmobility acceleration ETV
vector 578 FloodingNetwork.node[92].veinsmobility co2emission ETV
vector 579 FloodingNetwork.node[93].veinsmobility acceleration ETV
vector 580 FloodingNetwork.node[93].veinsmobility co2emission ETV
vector 581 FloodingNetwork.node[94].veinsmobility acceleration ETV
vector 582 FloodingNetwork.node[94].veinsmobility co2emission ETV
vector 583 FloodingNetwork.node[95].veinsmobility acceleration ETV
vector 584 FloodingNetwork.node[95].veinsmobility co2emission ETV
vector 585 FloodingNetwork.node[96].veinsmobility acceleration ETV
vector 586 FloodingNetwork.node[96].veinsmobility co2emission ETV
vector 587 FloodingNetwork.node[97].veinsmobility acceleration ETV
vector 588 FloodingNetwork.node[97].veinsmobility co2emission ETV
vector 589 FloodingNetwork.node[98].veinsmobility acceleration ETV
vector 590 FloodingNetwork.node[98].veinsmobility co2emission ETV
vector 591 FloodingNetwork.node[99].veinsmobility acceleration ETV
vector 592 FloodingNetwork.node[99].veinsmobility co2emission ETV
vector 593 FloodingNetwork.node[100].veinsmobility acceleration ETV
vector 594 FloodingNetwork.node[100].veinsmobility co2emission ETV
vector 595 FloodingNetwork.node[101].veinsmobility acceleration ETV
vector 596 FloodingNetwork.node[101].veinsmobility co2emission ETV
vector 597 FloodingNetwork.node[102].veinsmobility acceleration ETV
vector 598 FloodingNetwork.node[102].veinsmobility co2emission ETV
vector 599 FloodingNetwork.node[103].veinsmobility acceleration ETV
vector 600 FloodingNetwork.node[103].veinsmobility co2emission ETV
vector 601 FloodingNetwork.node[104].veinsmobility acceleration ETV
vector 602 FloodingNetwork.node[104].veinsmobility co2emission ETV
vector 603 FloodingNetwork.node[105].veinsmobility acceleration ETV
vector 604 FloodingNetwork.node[105].veinsmobility co2emission ETV
vector 605 FloodingNetwork.node[106].veinsmobility acceleration ETV
vector 606 FloodingNetwork.node[106].veinsmobility co2emission ETV
vector 607 FloodingNetwork.node[107].veinsmobility acceleration ETV
vector 608 FloodingNetwork.node[107].veinsmobility co2emission ETV
vector 609 FloodingNetwork.node[108].veinsmobility acceleration ETV
vector 610 FloodingNetwork.node[108].veinsmobility co2emission ETV
vector 611 FloodingNetwork.node[109].veinsmobility acceleration ETV
vector 612 FloodingNetwork.node[109].veinsmobility co2emission ETV
vector 613 FloodingNetwork.node[110].veinsmobility acceleration ETV
vector 614 FloodingNetwork.node[110].veinsmobility co2emission ETV
vector 615 FloodingNetwork.node[111].veinsmobility acceleration ETV
vector 616 FloodingNetwork.node[111].veinsmobility co2emission ETV
vector 617 FloodingNetwork.node[112].veinsmobility acceleration ETV
vector 618 FloodingNetwork.node[112].veinsmobility co2emission ETV
vector 619 FloodingNetwork.node[113].veinsmobility acceleration ETV
vector 620 FloodingNetwork.node[113].veinsmobility co2emission ETV
vector 621 FloodingNetwork.node[114].veinsmobility acceleration ETV
vector 622 FloodingNetwork.node[114].veinsmobility co2emission ETV
vector 623 FloodingNetwork.node[115].veinsmobility acceleration ETV
vector 624 FloodingNetwork.node[115].veinsmobility co2emission ETV
vector 625 FloodingNetwork.node[116].veinsmobility acceleration ETV
vector 626 FloodingNetwork.node[116].veinsmobility co2emission ETV
vector 627 FloodingNetwork.node[117].veinsmobility acceleration ETV
vector 628 FloodingNetwork.node[117].veinsmobility co2emission ETV
vector 629 FloodingNetwork.node[118].veinsmobility acceleration ETV
vector 630 FloodingNetwork.node[118].veinsmobility co2emission ETV
vector 631 FloodingNetwork.node[119].veinsmobility acceleration ETV
vector 632 FloodingNetwork.node[119].veinsmobility co2emission ETV
vector 633 FloodingNetwork.node[120].veinsmobility acceleration ETV
vector 634 FloodingNetwork.node[120].veinsmobility co2emission ETV
vector 635 FloodingNetwork.node[121].veinsmobility acceleration ETV
vector 636 FloodingNetwork.node[121].veinsmobility co2emission ETV
vector 637 FloodingNetwork.node[122].veinsmobility acceleration ETV
vector 638 FloodingNetwork.node[122].veinsmobility co2emission ETV
vector 639 FloodingNetwork.node[123].veinsmobility acceleration ETV
vector 640 FloodingNetwork.node[123].veinsmobility co2emission ETV
vector 641 FloodingNetwork.node[124].veinsmobility acceleration ETV
vector 642 FloodingNetwork.node[124].veinsmobility co2emission ETV
vector 643 FloodingNetwork.node[125].veinsmobility acceleration ETV
vector 644 FloodingNetwork.node[125].veinsmobility co2emission ETV
vector 645 FloodingNetwork.node[126].veinsmobility acceleration ETV
vector 646 FloodingNetwork.node[126].veinsmobility co2emission ETV
vector 647 FloodingNetwork.node[127].veinsmobility acceleration ETV
vector 648 FloodingNetwork.node[127].veinsmobility co2emission ETV
vector 649 FloodingNetwork.node[128].veinsmobility acceleration ETV
vector 650 FloodingNetwork.node[128].veinsmobility co2emission ETV
vector 651 FloodingNetwork.node[129].veinsmobility acceleration ETV
vector 652 FloodingNetwork.node[129].veinsmobility co2emission ETV
vector 653 FloodingNetwork.node[130].veinsmobility acceleration ETV
vector 654 FloodingNetwork.node[130].veinsmobility co2emission ETV
vector 655 FloodingNetwork.node[131].veinsmobility posx ETV
vector 656 FloodingNetwork.node[131].veinsmobility posy ETV
vector 657 FloodingNetwork.node[132].veinsmobility posx ETV
vector 658 FloodingNetwork.node[132].veinsmobility posy ETV
vector 659 FloodingNetwork.node[133].veinsmobility posx ETV
vector 660 FloodingNetwork.node[133].veinsmobility posy ETV
vector 661 FloodingNetwork.node[134].veinsmobility posx ETV
vector 662 FloodingNetwork.node[134].veinsmobility posy ETV
vector 663 FloodingNetwork.node[135].veinsmobility posx ETV
vector 664 FloodingNetwork.node[135].veinsmobility posy ETV
vector 665 FloodingNetwork.node[136].veinsmobility posx ETV
vector 666 FloodingNetwork.node[136].veinsmobility posy ETV
vector 667 FloodingNetwork.node[137].veinsmobility posx ETV
vector 668 FloodingNetwork.node[137].veinsmobility posy ETV
vector 669 FloodingNetwork.node[138].veinsmobility posx ETV
vector 670 FloodingNetwork.node[138].veinsmobility posy ETV
vector 671 FloodingNetwork.node[139].veinsmobility posx ETV
vector 672 FloodingNetwork.node[139].veinsmobility posy ETV
vector 673 FloodingNetwork.node[140].veinsmobility posx ETV
vector 674 FloodingNetwork.node[140].veinsmobility posy ETV
vector 675 FloodingNetwork.node[141].veinsmobility posx ETV
vector 676 FloodingNetwork.node[141].veinsmobility posy ETV
vector 677 FloodingNetwork.node[142].veinsmobility posx ETV
vector 678 FloodingNetwork.node[142].veinsmobility posy ETV
vector 679 FloodingNetwork.node[143].veinsmobility posx ETV
vector 680 FloodingNetwork.node[143].veinsmobility posy ETV
vector 681 FloodingNetwork.node[144].veinsmobility posx ETV
vector 682 FloodingNetwork.node[144].veinsmobility posy ETV
vector 683 FloodingNetwork.node[145].veinsmobility posx ETV
vector 684 FloodingNetwork.node[145].veinsmobility posy ETV
vector 685 FloodingNetwork.node[146].veinsmobility posx ETV
vector 686 FloodingNetwork.node[146].veinsmobility posy ETV
vector 687 FloodingNetwork.node[131].veinsmobility speed ETV
vector 688 FloodingNetwork.node[132].veinsmobility speed ETV
vector 689 FloodingNetwork.node[133].veinsmobility speed ETV
vector 690 FloodingNetwork.node[134].veinsmobility speed ETV
vector 691 FloodingNetwork.node[135].veinsmobility speed ETV
vector 692 FloodingNetwork.node[136].veinsmobility speed ETV
vector 693 FloodingNetwork.node[137].veinsmobility speed ETV
vector 694 FloodingNetwork.node[138].veinsmobility speed ETV
vector 695 FloodingNetwork.node[139].veinsmobility speed ETV
vector 696 FloodingNetwork.node[140].veinsmobility speed ETV
vector 697 FloodingNetwork.node[141].veinsmobility speed ETV
vector 698 FloodingNetwork.node[131].veinsmobility acceleration ETV
vector 699 FloodingNetwork.node[131].veinsmobility co2emission ETV
vector 700 FloodingNetwork.node[132].veinsmobility acceleration ETV
vector 701 FloodingNetwork.node[132].veinsmobility co2emission ETV
vector 702 FloodingNetwork.node[133].veinsmobility acceleration ETV
vector 703 FloodingNetwork.node[133].veinsmobility co2emission ETV
vector 704 FloodingNetwork.node[134].veinsmobility acceleration ETV
vector 705 FloodingNetwork.node[134].veinsmobility co2emission ETV
vector 706 FloodingNetwork.node[135].veinsmobility acceleration ETV
vector 707 FloodingNetwork.node[135].veinsmobility co2emission ETV
vector 708 FloodingNetwork.node[136].veinsmobility acceleration ETV
vector 709 FloodingNetwork.node[136].veinsmobility co2emission ETV
vector 710 FloodingNetwork.node[137].veinsmobility acceleration ETV
vector 711 FloodingNetwork.node[137].veinsmobility co2emission ETV
vector 712 FloodingNetwork.node[138].veinsmobility acceleration ETV
vector 713 FloodingNetwork.node[138].veinsmobility co2emission ETV
vector 714 FloodingNetwork.node[139].veinsmobility acceleration ETV
vector 715 FloodingNetwork.node[139].veinsmobility co2emission ETV
vector 716 FloodingNetwork.node[140].veinsmobility acceleration ETV
vector 717 FloodingNetwork.node[140].veinsmobility co2emission ETV
vector 718 FloodingNetwork.node[141].veinsmobility acceleration ETV
vector 719 FloodingNetwork.node[141].veinsmobility co2emission ETV
vector 720 FloodingNetwork.node[142].veinsmobility speed ETV
vector 721 FloodingNetwork.node[143].veinsmobility speed ETV
vector 722 FloodingNetwork.node[144].veinsmobility speed ETV
vector 723 FloodingNetwork.node[145].veinsmobility speed ETV
vector 724 FloodingNetwork.node[146].veinsmobility speed ETV
vector 725 FloodingNetwork.node[142].veinsmobility acceleration ETV
vector 726 FloodingNetwork.node[142].veinsmobility co2emission ETV
vector 727 FloodingNetwork.node[143].veinsmobility acceleration ETV
vector 728 FloodingNetwork.node[143].veinsmobility co2emission ETV
vector 729 FloodingNetwork.node[144].veinsmobility acceleration ETV
vector 730 FloodingNetwork.node[144].veinsmobility co2emission ETV
vector 731 FloodingNetwork.node[145].veinsmobility acceleration ETV
vector 732 FloodingNetwork.node[145].veinsmobility co2emission ETV
vector 733 FloodingNetwork.node[146].veinsmobility acceleration ETV
vector 734 FloodingNetwork.node[146].veinsmobility co2emission ETV
vector 735 FloodingNetwork.node[147].veinsmobility posx ETV
vector 736 FloodingNetwork.node[147].veinsmobility posy ETV
vector 737 FloodingNetwork.node[147].veinsmobility speed ETV
vector 738 FloodingNetwork.node[147].veinsmobility acceleration ETV
vector 739 FloodingNetwork.node[147].veinsmobility co2emission ETV
vector 740 FloodingNetwork.node[148].veinsmobility posx ETV
vector 741 FloodingNetwork.node[148].veinsmobility posy ETV
vector 742 FloodingNetwork.node[148].veinsmobility speed ETV
vector 743 FloodingNetwork.node[148].veinsmobility acceleration ETV
vector 744 FloodingNetwork.node[148].veinsmobility co2emission ETV
vector 745 FloodingNetwork.node[89].appl sent_messages ETV
vector 746 FloodingNetwork.node[138].appl duplicates ETV
vector 747 FloodingNetwork.node[149].veinsmobility posx ETV
vector 748 FloodingNetwork.node[149].veinsmobility posy ETV
vector 749 FloodingNetwork.node[149].veinsmobility speed ETV
vector 750 FloodingNetwork.node[149].veinsmobility acceleration ETV
vector 751 FloodingNetwork.node[149].veinsmobility co2emission ETV
vector 752 FloodingNetwork.node[138].appl sent_messages ETV
vector 753 FloodingNetwork.node[89].appl duplicates ETV
vector 754 FloodingNetwork.node[25].appl duplicates ETV
vector 755 FloodingNetwork.node[25].appl sent_messages ETV
vector 756 FloodingNetwork.node[94].appl sent_messages ETV
vector 757 FloodingNetwork.node[42].appl sent_messages ETV
vector 758 FloodingNetwork.node[94].appl duplicates ETV
vector 759 FloodingNetwork.node[12].appl sent_messages ETV
vector 760 FloodingNetwork.node[42].appl duplicates ETV
vector 761 FloodingNetwork.node[12].appl duplicates ETV
vector 762 FloodingNetwork.node[119].appl sent_messages ETV
vector 763 FloodingNetwork.node[146].appl sent_messages ETV
vector 764 FloodingNetwork.node[119].appl duplicates ETV
vector 765 FloodingNetwork.node[19].appl sent_messages ETV
vector 766 FloodingNetwork.node[16].appl sent_messages ETV
vector 767 FloodingNetwork.node[19].appl duplicates ETV
vector 768 FloodingNetwork.node[146].appl duplicates ETV
vector 769 FloodingNetwork.node[16].appl duplicates ETV
0	51027 16667 37 214542 1.2 71.2 701 36.75 304.55 52291.839556248 7515070.8277128
1	67694 18580 37 214542 1.2 71.2 701 923.35 1314.0799926839 745905.45385759 805878460.54405
2	86274 16123 37 214542 1.2 71.2 701 1693.35 1703.25 1192999.8509555 2030318160.027
3	102397 20345 37 214542 1.2 71.2 701 1500.351388675 2035.2552149046 1256195.6203153 2270117368.6424
4	122742 16288 37 214542 1.2 71.2 701 1136.75 1140.045090138 797128.94793202 906440697.78698
5	139030 20340 37 214542 1.2 71.2 701 540.45 1149.1364256997 593317.50112287 523740651.20284
6	159370 16233 37 214542 1.2 71.2 701 2793.35 2803.25 1963311.8780491 5498714540.0503
7	175603 20330 37 214542 1.2 71.2 701 447.07548389338 995.23689941215 520667.3631377 407030476.3459
8	195933 17429 37 214542 1.2 71.2 701 335.45 667.70253566606 399886.01253867 231662567.27982
9	213362 18257 37 214542 1.2 71.2 701 446.65 846.65 481436.70434651 345335798.47598
10	231619 18107 37 214542 1.2 71.2 701 60.45 361.79793099058 196247.22370617 58328190.139648
11	249726 19002 37 214542 1.2 71.2 701 613.25 1009.95 533708.11933745 420230594.42983
12	268728 18090 37 214542 1.2 71.2 701 610.45 930.84360301981 584502.95935964 490626103.30745
13	286818 18998 37 214542 1.2 71.2 701 213.25 609.95 258356.94575746 109554694.85736
14	305816 18426 37 214542 1.2 71.2 701 1359.5778760102 1679.55 1020591.0217173 1489119632.9278
15	324242 19220 37 214542 1.2 71.2 701 1720.05 2116.75 1374678.343315 2710069138.0333
16	343462 16387 37 214542 1.2 71.2 701 868.35 878.25 614717.67583905 539061335.13252
17	359849 21022 37 214542 1.2 71.2 701 1567.2724698334 2115.2692048147 1306156.9427011 2453975732.1099
18	380871 16839 37 214542 1.2 71.2 701 1961.75 1971.65 1376122.5401508 2701451401.3306
19	397710 21034 37 214542 1.2 71.2 701 214.75389263968 753.97384947273 325345.65328185 170486059.66642
20	418744 16979 37 214542 1.2 71.2 701 2236.6985637018 2240.0019243486 1568220.922054 3508298456.5763
21	435723 21039 37 214542 1.2 71.2 701 1740.45 2354.0181756083 1437527.7436986 2970096266.2109
22	456762 15839 37 214542 1.2 71.2 701 43.35 57.948774836019 36403.705805219 1896632.5375125
23	472601 21010 37 214542 1.2 71.2 701 689.95 1235.2542451613 689888.94278456 699052924.94696
24	493611 16912 37 214542 1.2 71.2 701 1411.75 1415.05 989884.56334605 1397819971.0442
25	510523 21040 37 214542 1.2 71.2 701 380.45 909.6886266539 464150.74649007 324265137.18302
26	531563 16555 37 214542 1.2 71.2 701 868.35 878.25 614667.79618449 538973993.52124
27	548118 21067 37 214542 1.2 71.2 701 1670.1157777515 2195.2160936395 1374551.4921834 2712312420.4414
28	569185 18127 37 214542 1.2 71.2 701 2512.257508012 2779.55 1791310.844361 4580350836.7376
29	587312 19604 37 214542 1.2 71.2 701 1963.8635468348 2356.75 1538717.2412377 3391964890.1887
30	606916 18224 37 214542 1.2 71.2 701 2508.6675279729 2779.55 1793524.7383756 4591873558.6392
31	625140 19516 37 214542 1.2 71.2 701 1083.3524951947 1476.75 938826.49622961 1269624868.9589
32	644656 20739 37 214542 1.2 71.2 701 1411.75 1960.2538048235 1199491.2699089 2074010287.7754
33	665395 15667 37 214542 1.2 71.2 701 600.05 657.31134923611 424533.33144781 257154076.51061
34	681062 16873 37 214542 1.2 71.2 701 2518.35 2528.25 1771347.6597987 4476001164.8203
35	697935 21034 37 214542 1.2 71.2 701 854.16001035266 1395.2536983986 804062.06168643 941958202.55045
36	718969 18122 37 214542 1.2 71.2 701 1755.7616585937 1978.25 1358640.7491396 2636032215.2679
37	737091 19229 37 214542 1.2 71.2 701 996.75 1315.2285660705 786168.81544362 891081091.88637
38	756320 16889 37 214542 1.2 71.2 701 1411.75 1421.65 990583.53457591 1399800245.4774
39	773209 21041 37 214542 1.2 71.2 701 134.75244497607 678.71021833364 269942.08992024 123886478.70585
40	794250 16833 37 214542 1.2 71.2 701 2243.35 2253.25 1578572.8881092 3554774111.4507
41	811083 21037 37 214542 1.2 71.2 701 1495.9544842307 2035.2144582434 1253154.3795416 2259728997.2601
42	832120 18480 37 214542 1.2 71.2 701 885.45 1182.2595446236 780509.06629632 872878936.19331
43	850600 19187 37 214542 1.2 71.2 701 766.65 1166.65 715308.40899129 743667820.5538
44	869787 18484 37 214542 1.2 71.2 701 1985.45 2253.25 1550914.3858516 3434864606.6736
45	888271 19326 37 214542 1.2 71.2 701 1720.05 2126.65 1384170.5367808 2747427499.0702
46	907597 18307 37 214542 1.2 71.2 701 1967.2445869366 2229.55 1412259.9598645 2848710094.5095
47	925904 19276 37 214542 1.2 71.2 701 1965.9056138239 2356.75 1558235.1809977 3475940629.9919
48	945180 16991 37 214542 1.2 71.2 701 2246.65 2253.25 1578537.6849594 3554612703.8627
49	962171 21041 37 214542 1.2 71.2 701 1817.5333899651 2429.55 1486120.729631 3172584090.0467
50	983212 18305 37 214542 1.2 71.2 701 1410.8852560364 1679.55 1023460.7927356 1497489124.0846
51	1001517 19444 37 214542 1.2 71.2 701 763.6681998927 1156.75 707368.94871499 727293277.30207
52	1020961 18011 37 214542 1.2 71.2 701 586.75 900.16371671015 457108.26209013 304844296.26872
53	1038972 19104 37 214542 1.2 71.2 701 534.75081088293 853.25 513482.87759432 386020258.30237
54	1058076 19929 37 214542 1.2 71.2 701 865.05 1523.5359698575 787623.09172277 917948907.67725
55	1078005 16883 37 214542 1.2 71.2 701 140.45 293.25 192074.90604742 53637861.616377
56	1094888 18924 37 214542 1.2 71.2 701 1850.0080184795 2229.55 1400752.3449206 2803888564.235
57	1113812 18523 37 214542 1.2 71.2 701 1003.35 1316.75 793319.50000503 908468613.68337
58	1132335 16998 37 214542 1.2 71.2 701 1961.75 1965.0440179847 1375459.607065 2698843808.381
59	1149333 21022 37 214542 1.2 71.2 701 860.45 1468.2253642808 816715.04904505 972908325.07041
60	1170355 16490 37 214542 1.2 71.2 701 861.75 865.04924629813 604359.21617254 521041998.75419
61	1186845 21056 37 214542 1.2 71.2 701 140.45 749.95602308188 313380.46812961 161803890.45306
62	1207901 17107 37 214542 1.2 71.2 701 2799.9547379448 2810.9 1964887.7156958 5507538451.1232
63	1225008 20978 37 214542 1.2 71.2 701 1511.7450054808 2116.75 1278761.7423224 2354542791.443
64	1245986 18195 37 214542 1.2 71.2 701 311.75 634.45729592728 265845.40369549 108130072.30293
65	1264181 19278 37 214542 1.2 71.2 701 1420.45 1813.25 1184197.6974061 2012150859.17
66	1283459 17025 37 214542 1.2 71.2 701 2786.75 2810.9 1954301.467681 5448360770.8806
67	1300484 20949 37 214542 1.2 71.2 701 123.35 641.09749833448 268011.48210946 118273756.66144
68	1321433 18966 37 214542 1.2 71.2 701 1756.6109993637 2246.65 1480113.5110993 3141910594.7744
69	1340399 18327 37 214542 1.2 71.2 701 2214.8006898684 2440.05 1666728.7013457 3967342818.0657
70	1358726 17672 37 214542 1.2 71.2 701 599.95401333954 854.55 442752.0016264 282413397.75171
71	1376398 19620 37 214542 1.2 71.2 701 1903.810418643 2356.75 1536194.4255419 3382086775.4548
72	1396018 16292 37 214542 1.2 71.2 701 29.1 53.25 36498.256620224 1909850.096143
73	1412310 20944 37 214542 1.2 71.2 701 325.27958322672 926.65 445553.53558444 304930627.04837
74	1433254 19347 37 214542 1.2 71.2 701 324.95530225746 900.89199110788 364735.49843433 217290184.11174
75	1452601 17520 37 214542 1.2 71.2 701 209.95 429.55 175032.91567385 46441409.231448
76	1470121 16850 37 214542 1.2 71.2 701 2511.75 2521.65 1761686.4326059 4427308594.9386
77	1486971 21015 37 214542 1.2 71.2 701 214.76910845239 743.33439125512 319102.42923565 163265950.7563
78	1507986 17948 37 214542 1.2 71.2 701 1710.45 1978.25 1361672.2224437 2648391912.9696
79	1525934 19534 37 214542 1.2 71.2 701 1972.0786843395 2286.65 1522996.0983279 3316812586.7705
80	1545468 16461 37 214542 1.2 71.2 701 324.95536278749 328.25 229838.91958652 75358479.446928
81	1561929 21020 37 214542 1.2 71.2 701 1105.2460369585 1709.55 986890.45923731 1410318821.0888
82	1582949 18379 37 214542 1.2 71.2 701 1710.45 1965.0346612677 1349131.9627288 2599879623.0511
83	1601328 18890 37 214542 1.2 71.2 701 133.25 523.35 191774.78559825 65531861.632119
84	1620218 18405 37 214542 1.2 71.2 701 1424.9563041008 1679.55 1026614.9367917 1506734171.8722
85	1638623 18858 37 214542 1.2 71.2 701 606.65 996.75 597276.69404779 522388834.62134
86	1657481 16498 37 214542 1.2 71.2 701 586.75 593.35 412047.75607249 242203789.7359
87	1673979 21041 37 214542 1.2 71.2 701 460.45 1043.1707037905 521291.61326058 407188497.91116
88	1695020 17468 37 214542 1.2 71.2 701 36.75 304.55 51183.907817894 7052523.1625927
89	1712488 19395 37 214542 1.2 71.2 701 203.35 606.00313049444 243703.90492036 97489952.934275
90	1731883 17004 37 214542 1.2 71.2 701 2799.9554569534 2803.25 1964803.7550307 5507067299.2771
91	1748887 21036 37 214542 1.2 71.2 701 1259.1221555153 1869.55 1094358.2800943 1730162887.0858
92	1769923 17694 37 214542 1.2 71.2 701 335.45 589.99513848227 390506.848677 220416800.23683
93	1787617 19398 37 214542 1.2 71.2 701 693.25 1145.0485262587 600183.38526706 529379281.85354
94	1807015 16826 37 214542 1.2 71.2 701 1136.75 1146.65 797826.47338782 908033406.04851
95	1823841 21049 37 214542 1.2 71.2 701 1174.7568505352 1713.4418621006 996428.84013162 1435829266.4528
96	1844890 16966 37 214542 1.2 71.2 701 2236.75 2240.0074280648 1568220.3329278 3508295817.7244
97	1861856 21045 37 214542 1.2 71.2 701 860.45 1442.4764578566 814730.27107358 966470358.2452
98	1882901 18395 37 214542 1.2 71.2 701 1160.45 1428.25 969551.25153705 1344969450.297
99	1901296 19282 37 214542 1.2 71.2 701 1729.935236397 2126.65 1396270.8627902 2793777392.0122
100	1920578 17641 37 214542 1.2 71.2 701 1136.75 1146.65 797804.16496408 907982402.73174
101	1938219 21734 37 214542 1.2 71.2 701 54.73684584495 535.04186188469 191593.98145534 66249829.453346
102	1959953 18857 37 214542 1.2 71.2 701 335.45 663.53778911838 398926.52441574 230644054.67555
103	1978810 19871 37 214542 1.2 71.2 701 1726.65 2126.65 1380621.6759879 2733722599.7471
104	1998681 17805 37 214542 1.2 71.2 701 1424.95 1428.25 1000923.1756765 1429169167.523
105	2016486 21747 37 214542 1.2 71.2 701 1795.6969116487 2349.55 1449249.6432597 3012570681.9493
106	2038233 19986 37 214219 1.2 71.1 700 1436.15 1703.25 1146573.4621186 1882186878.4702
107	2058219 18788 37 214219 1.2 71.1 700 1636.75 1886.65 1251894.1334614 2245966340.0292
108	2077007 18692 37 214219 1.2 71.1 700 611.15 897.04832270798 582219.43890633 487406793.13619
109	2095699 20032 37 214219 1.2 71.1 700 1413.25 1809.95 1093263.3133245 1720833684.1447
110	2115731 18743 37 214219 1.2 71.1 700 586.75 853.85 437774.27910501 277234007.11756
111	2134474 19961 37 214219 1.2 71.1 700 283.35 686.65 302326.9224051 144083042.80396
112	2154435 19092 37 214219 1.2 71.1 700 1971.5533051345 2240.0209800256 1530897.5536025 3353022859.7088
113	2173527 19672 37 214219 1.2 71.1 700 461.15 838.01676096026 502249.06524246 371163118.7053
114	2193199 17618 37 214219 1.2 71.1 700 1686.75 1696.65 1181688.9855846 1994847175.0987
115	2210817 21728 37 214219 1.2 71.1 700 614.78446564559 1146.411451473 598615.34654179 530324107.46905
116	2232545 20702 37 214219 1.2 71.1 700 1055.0429555717 1689.9906499757 1009063.2406698 1485320995.781
117	2253247 17965 37 214219 1.2 71.1 700 1901.15 2040.05 1415852.7681958 2864537704.044
118	2271212 18678 37 214219 1.2 71.1 700 324.97408749252 578.85 253185.37025832 94662819.637803
119	2289890 19927 37 214219 1.2 71.1 700 1326.65 1716.75 1100526.6538481 1743174532.5391
120	2309817 21697 37 214219 1.2 71.1 700 1418.35 1960.219505463 1209301.1640535 2108119915.1728
121	2331514 16084 37 214219 1.2 71.1 700 360.05 377.15528462983 254670.35337086 92657587.332854
122	2347598 19037 37 214219 1.2 71.1 700 2503.8122964774 2778.85 1792252.0736083 4592064074.8967
123	2366635 19859 37 214219 1.2 71.1 700 443.35 836.75 485456.88123913 349611653.96911
124	2386494 19143 37 214219 1.2 71.1 700 1149.9619935037 1458.529391517 848336.59186094 1034696891.608
125	2405637 19730 37 214219 1.2 71.1 700 369.95 748.85 343271.7869587 179053222.35507
126	2425367 18813 37 214219 1.2 71.1 700 311.75 616.54825579958 260895.48989396 103904580.65912
127	2444180 20122 37 214219 1.2 71.1 700 1741.15 2133.25 1403079.1055285 2823794973.8792
128	2464302 18341 37 214219 1.2 71.1 700 49.973290830588 303.85 58333.598677147 7564399.1353943
129	2482643 19910 37 214219 1.2 71.1 700 1406.65 1796.75 1147433.3340578 1894721873.5254
130	2502553 19059 37 214219 1.2 71.1 700 2481.1142478617 2778.85 1782517.2831038 4542535631.4938
131	2521612 19991 37 214219 1.2 71.1 700 1723.35 2123.35 1313409.3705071 2478141114.8101
132	2541603 19027 37 214219 1.2 71.1 700 1436.15 1761.0048233251 1165578.4548499 1943581670.2165
133	2560630 20074 37 214219 1.2 71.1 700 1333.25 1729.95 1047954.6384455 1583073347.136
134	2580704 20643 37 214219 1.2 71.1 700 2105.0961065678 2778.85 1717610.6791288 4233697612.2835
135	2601347 17530 37 214219 1.2 71.1 700 123.35 280.05 150594.58734008 35687479.063724
136	2618877 19074 37 214219 1.2 71.1 700 29.8 428.93722687939 94211.061418752 22515651.830152
137	2637951 19484 37 214219 1.2 71.1 700 1006.65 1326.65 772713.76326662 861300425.13906
138	2657435 19528 37 214219 1.2 71.1 700 2499.0383527753 2810.2 1906864.2340918 5200708978.5073
139	2676963 19584 37 214219 1.2 71.1 700 1643.35 1960.05 1304006.1736525 2437383462.0705
140	2696547 19040 37 214219 1.2 71.1 700 1711.15 1965.0389661613 1350213.4044822 2607423641.5052
141	2715587 19691 37 214219 1.2 71.1 700 373.25 763.35 363823.7153231 202212807.64124
142	2735278 19079 37 214219 1.2 71.1 700 886.15 1164.6120689658 779622.20403237 872032508.80865
143	2754357 20013 37 214219 1.2 71.1 700 1569.95 1966.65 1277228.0711071 2343432150.4665
144	2774370 20124 37 214219 1.2 71.1 700 1136.75 1403.85 848432.27641376 1033148836.8435
145	2794494 18261 37 214219 1.2 71.1 700 203.35 453.25 224809.00289851 79939036.736454
146	2812755 19700 37 214219 1.2 71.1 700 29.8 507.79535924634 126094.44006895 38158509.679381
147	2832455 18757 37 214219 1.2 71.1 700 2129.95 2366.65 1529861.8717232 3347694783.5838
148	2851212 19123 37 214219 1.2 71.1 700 1411.75 1678.85 1017245.0393551 1482120070.97
149	2870335 19591 37 214219 1.2 71.1 700 43.35 376.62648562589 122085.74372048 31978270.827505
150	2889926 19083 37 214219 1.2 71.1 700 2231.3210628334 2528.25 1725345.271371 4258894363.6863
151	2909009 19767 37 214219 1.2 71.1 700 916.75 1235.1629644218 723033.87984242 756317862.56494
152	2928776 19097 37 214219 1.2 71.1 700 2261.15 2528.25 1743011.5263009 4343539760.1078
153	2947873 20167 37 214219 1.2 71.1 700 1643.35 2046.65 1327714.5144894 2531929056.0269
154	2968040 18709 37 214219 1.2 71.1 700 61.15 328.81566488621 200111.12913982 61124728.52834
155	2986749 19991 37 214219 1.2 71.1 700 2054.3617328627 2446.65 1618254.43634 3753391007.2559
156	3006740 17605 37 214219 1.2 71.1 700 1136.75 1146.65 796708.21448922 906783265.35032
157	3024345 21698 37 214219 1.2 71.1 700 294.79509572466 826.30815050984 374392.55072075 218678916.7424
158	3046043 19104 37 214219 1.2 71.1 700 1136.75 1403.85 828695.79025302 985283035.84249
159	3065147 19365 37 214219 1.2 71.1 700 43.35 349.73887058577 93691.569112047 19074965.821156
160	3084512 17886 37 214219 1.2 71.1 700 2799.958678943 2810.2 1962057.979157 5499531691.3059
161	3102398 21626 37 214219 1.2 71.1 700 1868.2394733458 2436.75 1510267.5241204 3278356409.6843
162	3124024 18688 37 214219 1.2 71.1 700 874.95186970291 1128.85 637203.63991875 582973069.61257
163	3142712 19906 37 214219 1.2 71.1 700 1086.65 1476.75 928404.26174899 1244754158.5956
164	3162618 19257 37 214219 1.2 71.1 700 61.15 396.46093792124 199003.87492884 61096447.604476
165	3181875 19342 37 214219 1.2 71.1 700 1253.25 1566.65 1014389.2577494 1479865383.8364
166	3201217 17776 37 214219 1.2 71.1 700 2511.75 2515.0260433596 1758512.7398057 4417667782.0633
167	3218993 21689 37 214219 1.2 71.1 700 701.15 1297.8176877522 698531.7456875 717160441.74501
168	3240682 17650 37 214219 1.2 71.1 700 2518.35 2528.25 1768806.9736326 4469546241.4866
169	3258332 21705 37 214219 1.2 71.1 700 1969.4387670445 2435.1684666417 1565430.7725359 3515470629.96
170	3280037 21221 37 214219 1.2 71.1 700 2020.955138686 2796.65 1717360.1275082 4253006589.5691
171	3301258 17337 37 214219 1.2 71.1 700 1396.75 1468.85 981161.2575865 1375357634.4344
172	3318595 19086 37 214219 1.2 71.1 700 1436.15 1724.6732854291 1165861.4233068 1945397376.6617
173	3337681 19981 37 214219 1.2 71.1 700 1249.95 1646.65 1049479.18217 1586922482.4573
174	3357662 19067 37 214219 1.2 71.1 700 2217.8104333825 2503.85 1591815.2800214 3623408538.7274
175	3376729 20018 37 214219 1.2 71.1 700 1163.35 1560.05 917164.8936192 1215033915.9343
176	3396747 17613 37 214219 1.2 71.1 700 1143.35 1153.25 806304.79096186 928759465.99077
177	3414360 21699 37 214219 1.2 71.1 700 1822.5929833346 2355.196019674 1479912.6355811 3147320129.685
178	3436059 19076 37 214219 1.2 71.1 700 1418.35 1718.1905816369 1039955.2801209 1551147337.245
179	3455135 19612 37 214219 1.2 71.1 700 926.65 1235.2271973104 726903.35838627 763519586.45254
180	3474747 19078 37 214219 1.2 71.1 700 1161.15 1456.3016071538 975467.02539427 1362762765.6961
181	3493825 20039 37 214219 1.2 71.1 700 2046.65 2446.65 1605893.9291297 3697775063.7575
182	3513864 18726 37 214219 1.2 71.1 700 861.75 1128.85 632418.48611772 575233768.66566
183	3532590 19803 37 214219 1.2 71.1 700 283.35 678.27385850664 294225.14450347 136158488.04324
184	3552393 19066 37 214219 1.2 71.1 700 2505.4750981612 2778.85 1786824.3520187 4564877477.68
185	3571459 19795 37 214219 1.2 71.1 700 363.35 760.05 351610.51845339 189321964.41608
186	3591254 21718 37 214219 1.2 71.1 700 1715.1492724108 2235.1974847651 1416488.9856028 2881580913.2493
187	3612972 15172 37 214219 1.2 71.1 700 36.75 46.65 28516.492019226 1175152.2324788
188	3628144 17796 37 214219 1.2 71.1 700 1411.75 1418.35 989068.55217653 1397511969.4748
189	3645940 21709 37 214219 1.2 71.1 700 541.15 1136.8525032309 586277.45630928 511039205.63582
190	3667649 18663 37 214219 1.2 71.1 700 874.95028129055 1128.85 641058.23770081 590508642.15864
191	3686312 19956 37 214219 1.2 71.1 700 1893.2993402894 2276.75 1502080.5530195 3235038663.7616
192	3706268 19011 37 214219 1.2 71.1 700 1960.7425283997 2228.85 1407870.0079609 2834858252.2039
193	3725279 20087 37 214219 1.2 71.1 700 1723.6478818987 2116.75 1384077.6379487 2749270681.732
194	3745366 17399 37 214219 1.2 71.1 700 586.75 593.23623792078 411456.81839119 241854129.8725
195	3762765 21700 37 214219 1.2 71.1 700 1261.15 1814.8689052378 1089477.7447781 1714878563.7907
196	3784465 16558 37 214219 1.2 71.1 700 36.75 46.65 26714.833565328 1025698.4785793
197	3801023 21702 37 214219 1.2 71.1 700 134.82390635543 665.52623531383 261583.81250101 116106074.74708
198	3822725 18662 37 214219 1.2 71.1 700 871.08310913296 1128.85 640527.19448011 589627386.18962
199	3841387 19932 37 214219 1.2 71.1 700 1812.3677666254 2196.75 1446311.8835608 3000105569.488
200	3861319 19079 37 214219 1.2 71.1 700 861.75 1128.85 640333.36825183 590256579.14049
201	3880398 19381 37 214219 1.2 71.1 700 203.35 541.75406101112 215396.47964693 75201988.021613
202	3899779 18661 37 214219 1.2 71.1 700 336.15 617.95438616694 397303.31013973 228943472.80827
203	3918440 20113 37 214219 1.2 71.1 700 1969.95 2366.65 1553948.1675299 3462695987.6202
204	3938553 17757 37 214219 1.2 71.1 700 2236.75 2240.0484529545 1566006.7494507 3503396459.8308
205	3956310 21687 37 214219 1.2 71.1 700 221.15 820.59505641509 364254.66741413 209806068.2829
206	3977997 17103 37 214219 1.2 71.1 700 868.35 878.25 613781.05864286 538187780.5397
207	3995100 21699 37 214219 1.2 71.1 700 944.6649692663 1475.1633704721 865710.74930075 1088972799.1799
208	4016799 19072 37 214219 1.2 71.1 700 2261.15 2528.25 1743455.3859379 4345900096.1457
209	4035871 20174 37 214219 1.2 71.1 700 1714.4382631916 2126.65 1384994.1610784 2753823226.0931
210	4056045 19070 37 214219 1.2 71.1 700 1136.75 1403.85 822914.80694799 970885032.59062
211	4075115 20166 37 214219 1.2 71.1 700 1083.35 1486.65 861986.80251064 1074933166.7778
212	4095281 20502 37 214219 1.2 71.1 700 868.35 1467.4142117422 775643.53684456 887462904.04627
213	4115783 17518 37 214219 1.2 71.1 700 54.798022367627 133.25 84906.134434929 10641961.55957
214	4133301 16571 37 214219 1.2 71.1 700 36.75 46.65 26688.801875584 1023577.3509881
215	4149872 21719 37 214219 1.2 71.1 700 54.766457745994 584.40620781368 205307.4055669 78230123.886733
216	4171591 19013 37 214219 1.2 71.1 700 886.15 1159.4713577795 773101.46784279 857098211.431
217	4190604 19839 37 214219 1.2 71.1 700 613.25 1006.65 529152.03661135 412888148.19458
218	4210443 17794 37 214219 1.2 71.1 700 2511.75 2515.045594945 1758518.7435362 4417697960.9388
219	4228237 21709 37 214219 1.2 71.1 700 381.15 977.44301213719 474412.11164918 341544554.64187
220	4249946 18843 37 214219 1.2 71.1 700 61.15 328.25 196855.22557054 59583370.610781
221	4268789 19836 37 214219 1.2 71.1 700 1747.6243440321 2126.65 1403596.5322944 2825339221.4186
222	4288625 16575 37 214219 1.2 71.1 700 36.75 46.65 26694.571855542 1024017.1557087
223	4305200 21708 37 214219 1.2 71.1 700 534.78297255607 1067.0827081806 543281.22872377 440206244.8241
224	4326908 18804 37 214219 1.2 71.1 700 861.75 1128.85 635496.24531861 580980801.49923
225	4345712 19442 37 214219 1.2 71.1 700 43.35 427.81845910646 118902.02636054 31642147.738901
226	4365154 17428 37 214219 1.2 71.1 700 1968.35 1978.25 1383864.7952012 2735837012.3923
227	4382582 21702 37 214219 1.2 71.1 700 1984.3027218771 2355.2656674972 1535555.3606502 3377176110.8077
228	4404284 18273 37 214219 1.2 71.1 700 36.75 300.5 51714.551751795 7147592.289636
229	4422557 20023 37 214219 1.2 71.1 700 363.35 757.04757997678 354168.5988708 191452938.42338
230	4442580 16965 37 214219 1.2 71.1 700 36.75 40.039641069218 26048.527521106 969941.32718846
231	4459545 21700 37 214219 1.2 71.1 700 784.5 1340.0782258972 746227.58763331 813521028.3457
232	4481245 17092 37 214219 1.2 71.1 700 33.15 53.25 36277.394896242 1890035.5308884
233	4498337 21682 37 214219 1.2 71.1 700 1189.8611981134 1726.65 1031611.8634905 1538188502.5213
234	4520019 17245 37 214219 1.2 71.1 700 311.75 321.65 219206.43918546 68650834.598958
235	4537264 21696 37 214219 1.2 71.1 700 694.71796808089 1204.6042853616 648014.0461526 616718248.97297
236	4558960 19798 37 214219 1.2 71.1 700 339.5 830.92990487827 410883.27513837 248853217.02166
237	4578758 18688 37 214219 1.2 71.1 700 1813.25 2053.25 1349123.2874331 2607276572.1078
238	4597446 17926 37 214219 1.2 71.1 700 1411.75 1415.0490045616 988545.34427078 1396031898.0158
239	4615372 21712 37 214219 1.2 71.1 700 224.5 783.89029040385 355158.93079569 198390558.95358
240	4637084 16890 37 214219 1.2 71.1 700 49.956954599475 53.25 36959.228617736 1952016.4714888
241	4653974 21701 37 214219 1.2 71.1 700 1581.3071886144 2097.05 1287767.6906783 2384357452.2816
242	4675675 18557 37 214219 1.2 71.1 700 72.95 318.35 197711.03581116 58641452.369146
243	4694232 19982 37 214219 1.2 71.1 700 213.25 582.5272702741 239567.85566649 92247617.744769
244	4714214 17843 37 214219 1.2 71.1 700 2236.75 2240.0339988363 1566031.8738362 3503508919.9273
245	4732057 21707 37 214219 1.2 71.1 700 952.95 1470.1138342895 848522.73989907 1044032980.0636
246	4753764 18162 37 214219 1.2 71.1 700 2799.95 2803.25 1961922.0606191 5498769479.9315
247	4771926 21642 37 214219 1.2 71.1 700 1985.3164155769 2456.35 1566992.6985327 3521964343.4596
248	4793568 17546 37 214219 1.2 71.1 700 874.95 878.25 614458.66178557 539371239.86866
249	4811114 21709 37 214219 1.2 71.1 700 1166.514076678 1614.8 978871.23577352 1380218551.3022
250	4832823 18948 37 214219 1.2 71.1 700 1450.2 1690.0306119084 1159706.8577691 1924019272.6491
251	4851771 19977 37 214219 1.2 71.1 700 213.25 574.28282109383 237468.09828516 90339401.022102
252	4871748 20062 37 214219 1.2 71.1 700 1750.4711929986 2249.95 1471771.8582908 3112138785.2483
253	4891810 18781 37 214219 1.2 71.1 700 2036.75 2195.2064713347 1452620.9451662 3016521119.3587
254	4910591 18987 37 214219 1.2 71.1 700 1974.9595494006 2214.8 1403889.186244 2818087047.7514
255	4929578 20277 37 214219 1.2 71.1 700 1938.9611446907 2276.75 1505088.8718518 3244942668.0862
256	4949855 21260 37 214219 1.2 71.1 700 603.25 1317.5593316046 647390.50399748 632131668.78589
257	4971115 17250 37 214219 1.2 71.1 700 1969.95 2014.8 1381681.0565375 2727229788.8138
258	4988365 18946 37 214219 1.2 71.1 700 900.2 1143.35 775206.18938487 861249252.49759
259	5007311 19967 37 214219 1.2 71.1 700 533.25 892.92597438411 460988.55957553 313316938.54776
260	5027278 18129 37 214219 1.2 71.1 700 2786.75 2806.35 1951929.7946547 5442912271.8302
261	5045407 21691 37 214219 1.2 71.1 700 203.35 669.72765149774 293740.68716115 137469830.79193
262	5067098 21744 171 214542 1.3 71.2 700 3.1879967382482 14.312327852446 6487.7921253866 68508.350515457
263	5088842 21727 171 214542 1.3 71.2 700 3.2357152718328 11.712101022437 5936.1696065369 55833.074071457
264	5110569 21736 171 214542 1.3 71.2 700 3.2015680558919 12.897386230303 6112.5146358647 60076.21707334
265	5132305 21732 171 214542 1.3 71.2 700 3.2681683425397 14.571808888222 6080.5697339283 60124.190005849
266	5154037 21724 171 214542 1.3 71.2 700 3.1671111673043 15.649684421431 7156.6386232602 84437.638948046
267	5175761 21739 171 214542 1.3 71.2 700 3.3099928880996 13.404870604259 6845.3250547775 74834.483028369
268	5197500 21729 171 214542 1.3 71.2 700 3.2375822378894 14.65072071678 7037.0254467908 80591.493311106
269	5219229 21727 171 214542 1.3 71.2 700 3.2064884225667 14.797439462023 7032.9770212928 80708.599522324
270	5240956 21720 171 214542 1.3 71.2 700 3.2210275904569 15.802115559391 6072.7311595436 60102.388408831
271	5262676 21736 171 214542 1.3 71.2 700 3.2258468317425 14.942706359061 5981.7170436019 57648.667783464
272	5284412 21735 171 214542 1.3 71.2 700 3.2683540718243 13.96958396473 6164.2203601134 61719.377878555
273	5306147 21748 171 214542 1.3 71.2 700 3.2419852625533 13.546914937927 6046.4786603052 59222.833505661
274	5327895 21575 171 214542 1.3 71.2 700 0 10.62557303442 5315.3627697446 47275.273093369
275	5349470 21685 171 214542 1.3 71.2 700 0 12.888569454998 5842.0478087121 56133.880437783
276	5371155 21616 171 214542 1.3 71.2 700 0 16.063255397611 6499.6948007241 75654.700779123
277	5392771 21746 171 214542 1.3 71.2 700 0.39831533827912 14.606113090003 6538.6901158052 72734.283193391
278	5414517 21732 171 214542 1.3 71.2 700 3.1964268441521 14.469983353378 8433.9091743897 109826.26991704
279	5436249 21717 171 214542 1.3 71.2 700 3.2299414405821 12.798067609247 6001.1308745039 57974.331479462
280	5457966 21722 171 214542 1.3 71.2 700 3.2006144026573 9.5132866642568 5810.8790037439 50675.517517095
281	5479688 21722 171 214542 1.3 71.2 700 3.222315209757 13.519985660448 6030.7550244211 58989.210070492
282	5501410 21729 171 214542 1.3 71.2 700 3.219243651913 12.568322711859 5982.446708977 57568.86561183
283	5523139 21719 171 214542 1.3 71.2 700 3.2547022824337 13.328980310053 6799.6427704476 73828.821520961
284	5544858 21713 171 214542 1.3 71.2 700 3.2168784038421 14.009175127097 6932.6399041654 77528.397440546
285	5566571 21734 171 214542 1.3 71.2 700 3.1832376474572 12.220570415565 6445.4742049653 65478.650605473
286	5588305 21714 171 214542 1.3 71.2 700 3.244512641348 14.631984193715 6147.8906129903 61531.480602358
287	5610019 21730 171 214542 1.3 71.2 700 0.38732993262634 13.843515868348 6514.0582564277 70376.141364255
288	5631749 21748 171 214542 1.3 71.2 700 1.3582754124936 14.315158230377 6728.0938209067 74798.665449788
289	5653497 21732 171 214542 1.3 71.2 700 3.1958618647386 14.387973362518 7987.5296780222 100391.2502104
290	5675229 21715 171 214542 1.3 71.2 700 3.1979288137655 12.14268563722 6822.8176443927 72412.489201956
291	5696944 21740 171 214542 1.3 71.2 700 3.1835548933235 12.837244112569 6103.863987987 59891.011813462
292	5718684 21728 171 214542 1.3 71.2 700 3.2199955644402 13.214635574056 6121.543292772 60522.610414018
293	5740412 21718 171 214542 1.3 71.2 700 3.2356171430844 14.585134698874 6144.8426940738 61022.313971265
294	5762130 21720 171 214542 1.3 71.2 700 3.2059570551388 14.351526320451 7003.1140765882 79406.028959322
295	5783850 21726 171 214542 1.3 71.2 700 3.2254929665842 13.748988981522 5327.9861226444 44335.151837198
296	5805576 21695 171 214542 1.3 71.2 700 3.2516279283571 14.644763010566 7597.7992731864 92642.911530051
297	5827271 21737 171 214542 1.3 71.2 700 3.1932970142833 16.418019820348 7051.0822358604 82876.192094069
298	5849008 21730 171 214542 1.3 71.2 700 3.2284386482644 14.517305824152 6173.0853456358 61791.139119734
299	5870738 21731 171 214542 1.3 71.2 700 3.2089184806441 16.405717941102 7904.7936821983 102893.23245468
300	5892469 21738 171 214542 1.3 71.2 700 3.1737652392308 14.104561286668 5875.2259419372 55055.312916166
301	5914207 21709 171 214542 1.3 71.2 700 1.9933968728931 15.516650657873 5724.4534014857 59162.883461216
302	5935916 21730 171 214542 1.3 71.2 700 3.1940469947279 12.016013885778 6070.8029334375 58421.979381181
303	5957646 21731 171 214542 1.3 71.2 700 3.2077025980545 12.561283874308 6618.7763523411 69310.683524109
[...]
1107	41786452 31 623805 623805 192.596993817097 192.596993817097 1 1 1 1 1
1132	41786483 93 630401 644696 194.354479076948 198.255044152507 3 1 3 6 14
590	41786576 17128 443279 651094 141.3 200 588 0.973 8.9478203354138 1578.3949411594 6184.0782382709
589	41803704 19539 443279 651094 141.3 200 588 -4 2.4 -14.327216679133 1337.0582770838
360	41823243 19227 443279 651094 141.3 200 588 3.2999630680563 12.623072010746 6233.9839015245 70903.287350588
197	41842470 15707 443279 651094 141.3 200 588 1241.7798925687 1333.25 778927.56509801 1032077352.789
196	41858177 18539 443279 651094 141.3 200 588 40.905519345542 585.70815525528 163308.22990079 64144972.199165
592	41876716 16841 443279 651094 141.3 200 588 0.973 8.4417207417294 1824.3377908357 8247.1193325663
591	41893557 18866 443279 651094 141.3 200 588 -4 2.4 -7.4696978246891 2514.7724561628
361	41912423 19214 443279 651094 141.3 200 588 3.188573527469 12.084382071556 4858.4975205484 44851.66699121
199	41931637 19221 443279 651094 141.3 200 588 939.94684940175 1423.4767471677 695423.77177959 834232762.91973
198	41950858 15513 443279 651094 141.3 200 588 599.95638110738 603.25 354463.96437102 213681944.91668
804	41966371 812 449114 647273 142.9542375712 198.9542375712 29 1 1 29 29
594	41967183 17044 443279 651094 141.3 200 588 0.973 6.5788459060781 1259.1599825475 3650.631344833
593	41984227 19778 443279 651094 141.3 200 588 -3.7515606307452 2.4 -0.40445039031092 739.32344639855
362	42004005 19231 443279 651094 141.3 200 588 3.1964973170165 10.065901089766 5452.0641429884 52145.828630982
201	42023236 14505 443279 651094 141.3 200 588 689.95 693.25 407217.24304983 282017803.25019
200	42037741 19214 443279 651094 141.3 200 588 1387.2684091324 1930.8356259575 970506.88813381 1616661342.3284
914	42056955 509 512904 649104 161.373548264666 199.454345460439 17 1 1 17 17
927	42057464 422 514647 649493 161.854177785666 199.554358689771 14 1 14 105 1015
596	42057886 16837 443279 651094 141.3 200 588 0.973 9.5767279977183 2122.2867993563 11274.856275043
595	42074723 18776 443279 651094 141.3 200 588 -4 2.4 -3.0108022002544 3034.3433623413
363	42093499 19218 443279 651094 141.3 200 588 3.1311987813454 13.69699201938 5037.6364712996 48474.197861926
203	42112717 19230 443279 651094 141.3 200 588 1044.1045518754 1544.8008951523 761532.77238813 998238998.67743
202	42131947 15519 443279 651094 141.3 200 588 874.97287367879 878.25 516163.8702229 453104460.47598
598	42147466 16918 443279 651094 141.3 200 588 0.973 9.4390257861712 2133.0062005525 11223.058139266
597	42164384 18775 443279 651094 141.3 200 588 -4 2.4 30.515149268071 2976.1121717339
364	42183159 19211 443279 651094 141.3 200 588 3.2239057175091 13.653121459112 4968.8928561977 46976.008262106
205	42202370 19231 443279 651094 141.3 200 588 1400.4618703754 1894.1021571534 971588.54889077 1617377876.4364
204	42221601 16072 443279 651094 141.3 200 588 2236.75 2240.0475343692 1315492.414613 2943062257.8686
910	42237673 11755 504850 651094 159.1 200 410 0.973 9.3182386944676 1384.6575843743 6924.656185426
909	42249428 13096 504850 651094 159.1 200 410 -4 2.4 -0.017445666817828 1890.7043600223
907	42262524 13421 504511 651094 159 200 411 3.1967578318116 13.52959410145 3617.5058329904 35991.857371578
905	42275945 12833 504152 651094 158.9 200 412 534.806718581 756.75 268391.64762299 177454596.3884
904	42288778 11336 504152 651094 158.9 200 412 2703.5054501335 2796.65 1146220.871658 3189035628.3711
897	42300114 600 496382 644017 156.678347297697 198.054254766577 20 1 1 20 20
1079	42300714 217 606730 636684 187.857498264373 196.054254766577 7 1 7 28 140
602	42300931 16730 443279 651094 141.3 200 588 0.973 9.6824674637834 2065.105967339 10873.195698159
601	42317661 18752 443279 651094 141.3 200 588 -4 2.4 -40.893101850721 3068.2977514715
366	42336413 19219 443279 651094 141.3 200 588 3.2495453787364 13.680628279422 4919.8691640052 46319.198774851
209	42355632 19222 443279 651094 141.3 200 588 623.48354604872 1113.0966117648 513577.32077311 460526409.54763
208	42374854 15926 443279 651094 141.3 200 588 2524.9613492629 2528.25 1486364.9306272 3757280589.3497
604	42390780 17198 443279 651094 141.3 200 588 0.973 9.9226750815915 1739.5655915114 7836.7975977065
603	42407978 19669 443279 651094 141.3 200 588 -4 2.4 11.533990803104 1213.4393640327
367	42427647 19215 443279 651094 141.3 200 588 3.245582208997 14.536337128449 7375.5457933498 98760.773968412
211	42446862 15028 443279 651094 141.3 200 588 1489.95 1493.25 877034.56294906 1308147143.0816
210	42461890 19224 443279 651094 141.3 200 588 1998.5703723033 2734.0381246223 1391725.1411515 3318625604.4284
608	42481114 17180 443279 651094 141.3 200 588 0.973 10.105226977751 2079.7755187824 10811.649763924
607	42498294 19181 443279 651094 141.3 200 588 -4 2.4 69.90988482753 2198.2444888258
369	42517475 19232 443279 651094 141.3 200 588 3.2234736297489 14.618843134412 6111.2011570649 71371.323589037
215	42536707 17015 443279 651094 141.3 200 588 1161.7098790346 1406.65 792626.26465799 1071917906.5407
214	42553722 17255 443279 651094 141.3 200 588 36.75 310.22402454829 74557.000973189 15691192.395005
774	42570977 570 448052 647699 142.686241536549 199.054322261842 19 1 1 19 19
787	42571547 989 448426 647707 142.754322247695 199.054348227627 32 61 92 2448 190000
610	42572536 16884 443279 651094 141.3 200 588 0.973 9.5888017419897 2117.7709326554 11062.173452118
609	42589420 18805 443279 651094 141.3 200 588 -4 2.4 16.467254163484 2946.1971006106
370	42608225 19230 443279 651094 141.3 200 588 3.1257670958453 13.566089639179 5019.6693174393 48113.096392305
217	42627455 19215 443279 651094 141.3 200 588 1421.512585895 1920.2672496537 982527.33274593 1653679164.3191
216	42646670 15930 443279 651094 141.3 200 588 1411.75 1415.0309834567 830356.49759745 1172605774.7283
833	42662600 809 443647 632943 141.389559702465 195.063931479707 27 1 1 27 27
831	42663409 150 532769 644714 166.95438956397 198.281704528482 5 6 10 40 330
612	42663559 17131 443279 651094 141.3 200 588 0.973 9.1517904964469 1619.4460855913 6680.0047699976
611	42680690 19538 443279 651094 141.3 200 588 -4 2.4 -57.254319940795 1490.8666497861
371	42700228 19212 443279 651094 141.3 200 588 3.2556734007343 13.965759046051 6724.4050684691 83817.951935581
219	42719440 15141 443279 651094 141.3 200 588 1068.5359901304 1080.05 633826.68117852 683226774.6959
218	42734581 19172 443279 651094 141.3 200 588 1153.25 1817.2194901146 868036.74208922 1304763489.1587
1177	42753753 31 650885 650885 199.917326389186 199.917326389186 1 1 1 1 1
614	42753784 16922 443279 651094 141.3 200 588 0.973 8.1299500254285 1709.5642364797 7195.407633308
613	42770706 18994 443279 651094 141.3 200 588 -4 2.4 -1.2746931972819 2268.1590420595
372	42789700 19206 443279 651094 141.3 200 588 3.175856379195 11.312856630053 4862.1940564762 44230.417142681
221	42808906 19225 443279 651094 141.3 200 588 903.66308345008 1386.8443497972 672290.06286285 780007432.53088
220	42828131 15493 443279 651094 141.3 200 588 599.98564491697 603.25 354469.61282568 213688742.00659
946	42843624 445 529650 646095 166.062064438923 198.6776123567 15 1 1 15 15
967	42844069 915 549698 646550 171.754337589759 198.754545173713 30 1 30 465 9455
616	42844984 17147 443279 651094 141.3 200 588 0.973 9.375746078767 1641.6039711712 6978.8734050833
615	42862131 19706 443279 651094 141.3 200 588 -3.7819807665264 2.4 -38.433897551707 1264.8777125722
373	42881837 19217 443279 651094 141.3 200 588 3.1998139320774 14.172365863047 7174.5542084483 93386.364779593
223	42901054 15038 443279 651094 141.3 200 588 1406.6715587291 1413.25 829283.14701492 1169576619.3845
222	42916092 19212 443279 651094 141.3 200 588 394.67537691629 1110.4617226779 440561.18714415 353648246.40338
814	42935304 810 450160 649825 143.264009908469 199.654118846899 27 1 1 27 27
816	42936114 124 606015 620541 187.654144933207 191.654118846899 4 26 29 110 3030
618	42936238 17085 443279 651094 141.3 200 588 0.973 8.2572221248583 1429.4313019288 5002.5514983997
617	42953323 19720 443279 651094 141.3 200 588 -4 2.4 -0.097517547821578 920.96607036683
374	42973043 19215 443279 651094 141.3 200 588 3.2382743531185 11.818121495505 6243.8017819992 69277.912079399
225	42992258 14498 443279 651094 141.3 200 588 769.95 773.25 454166.96767363 350796449.52911
224	43006756 19233 443279 651094 141.3 200 588 1191.700186705 1814.2667566317 885929.99790322 1353181956.3684
1082	43025989 31 609541 609541 188.660274701819 188.660274701819 1 1 1 1 1
1085	43026020 407 610303 647333 188.854235172131 198.979942956896 13 1 13 91 819
620	43026427 16743 443279 651094 141.3 200 588 0.973 6.7955805463077 1444.9574218995 4919.6220258465
619	43043170 18952 443279 651094 141.3 200 588 -4 2 11.281929171434 1486.2549138536
375	43062122 19216 443279 651094 141.3 200 588 3.1993358841876 10.851546567372 4101.3028151883 30794.999864309
227	43081338 19217 443279 651094 141.3 200 588 1150.5754015386 1558.1035474439 794599.646506 1081577328.8266
226	43100555 15854 443279 651094 141.3 200 588 1974.964956315 1978.25 1162966.7172537 2300156245.2697
622	43116409 17451 443279 651094 141.3 200 588 0.973 9.145780661186 1903.8504955478 8241.7105233673
621	43133860 18958 443279 651094 141.3 200 588 -3.8730604250403 2 110.94827351504 1821.2082020228
376	43152818 19236 443279 651094 141.3 200 588 3.2361301324146 14.771498298376 5517.4567731244 59219.437520002
229	43172054 18069 443279 651094 141.3 200 588 1148.8133003053 1493.25 801880.01559259 1101277246.5182
228	43190123 16661 443279 651094 141.3 200 588 311.75 534.53848563602 201704.69910701 71165648.663008
624	43206784 17472 443279 651094 141.3 200 588 0.973 8.3339077757093 1756.3103369455 7386.7142896572
623	43224256 19571 443279 651094 141.3 200 588 -3.9489515176899 2 43.372138210079 1116.2140905277
377	43243827 19235 443279 651094 141.3 200 588 3.1979248956363 14.374891625153 7035.0562437284 90761.833510859
231	43263062 15084 443279 651094 141.3 200 588 1886.65 1893.25 1112560.3192932 2105087250.7834
230	43278146 19224 443279 651094 141.3 200 588 61.395686945511 762.83359328788 243943.38669653 123813168.68912
626	43297370 17247 443279 651094 141.3 200 588 0.973 7.7828761256601 1893.4837226911 8202.6799130939
625	43314617 18669 443279 651094 141.3 200 588 -4 2 47.51350009759 2314.0291249324
378	43333286 19231 443279 651094 141.3 200 588 3.1685188564595 12.945578674543 4655.8053959268 41117.351354873
233	43352517 18805 443279 651094 141.3 200 588 213.25 631.02738944951 239143.18637191 107510964.91263
232	43371322 15499 443279 651094 141.3 200 588 49.974943374505 99.386979467473 32134.385111862 1786473.8116695
1093	43386821 124 620163 649936 191.558528096587 199.699760714018 4 1 1 4 4
1099	43386945 248 620572 642581 191.654302233033 197.699760714018 8 1 8 36 204
628	43387193 17371 443279 651094 141.3 200 588 0.973 8.6348792492589 1689.1728678649 6828.4086222197
627	43404564 19370 443279 651094 141.3 200 588 -3.9120805797595 2 -38.937845010049 1525.0204181052
379	43423934 19219 443279 651094 141.3 200 588 3.2202884121886 14.538080782152 6394.7858765842 77428.930653667
235	43443153 16246 443279 651094 141.3 200 588 1677.5264851761 1813.25 1053174.1117595 1887133817.1127
234	43459399 18148 443279 651094 141.3 200 588 315.05 832.26854058706 294115.13184581 163890864.88402
982	43477547 240 559961 650336 174.651846576318 199.754378949011 8 1 1 8 8
996	43477787 703 567512 650348 176.755399877067 199.754391890576 23 1 23 276 4324
979	43478490 7924 552211 651094 172.5 200 276 0.973 7.3120550497368 786.16122392928 3085.4847814513
978	43486414 8744 552211 651094 172.5 200 276 -4 2 -44.839201782576 1139.3014025287
975	43495158 9059 551879 651094 172.4 200 277 3.1999009561043 14.157191566402 2155.7592447841 18841.753335115
973	43504217 9068 551531 651094 172.3 200 278 1153.6463425631 1315.1982469935 346982.26026308 433776392.04536
972	43513285 7445 551531 651094 172.3 200 278 1693.35 1703.25 472686.97201528 803720257.16262
762	43520730 630 448050 647307 142.683242467494 198.974256535908 21 1 1 21 21
764	43521360 836 448072 632543 142.698537346266 194.974256535908 27 29 55 1134 49266
632	43522196 17286 443279 651094 141.3 200 588 0.973 7.9123715432713 1771.8864802232 7391.3988720672
631	43539482 19119 443279 651094 141.3 200 588 -4 2 31.046037295549 1720.9512560009
381	43558601 19224 443279 651094 141.3 200 588 3.2170781900296 13.056203987308 5613.9833843707 59471.9456503
239	43577825 17152 443279 651094 141.3 200 588 1340.6796712195 1573.25 891743.03548642 1355499419.4476
238	43594977 17620 443279 651094 141.3 200 588 1411.75 1756.5445667245 887795.94709943 1348278691.7033
1151	43612597 900 637748 651094 196.4 200 37 0.973 2.9655345135262 38.383321721383 43.787098924812
1150	43613497 1286 637748 651094 196.4 200 37 -3.9388866984589 0.28774467104812 -94.548099278727 270.4592060001
1149	43614783 1283 637380 651094 196.3 200 38 4.2580108524864 13.741595247464 345.70957285972 3489.8488364635
1148	43616066 1299 637030 651094 196.2 200 39 702.90484379928 737.05 27980.045550102 20078275.702355
1147	43617365 1006 637030 651094 196.2 200 39 2796.65 2796.65 109069.35 305028797.6775
942	43618371 359 528489 646106 165.75248696176 198.699776647045 12 1 1 12 12
945	43618730 980 529623 646554 166.054381336187 198.754545185986 32 1 32 528 11440
634	43619710 17549 443279 651094 141.3 200 588 0.973 6.3786048213734 1429.6237978203 4430.1238110826
633	43637259 19529 443279 651094 141.3 200 588 -3.891843366444 1.5 0.32423314114069 933.19516202173
382	43656788 19222 443279 651094 141.3 200 588 3.1952721953554 12.793413548196 5819.5919389281 63793.603943962
241	43676010 15375 443279 651094 141.3 200 588 1409.95 1413.25 830486.78287541 1172974381.6792
240	43691385 19218 443279 651094 141.3 200 588 570.38204235367 1150.6584660679 504094.29215338 451088391.96483
1118	43710603 2199 625197 651094 193 200 71 0.973 4.6873647344652 152.9977715726 418.58736497029
1117	43712802 2515 625197 651094 193 200 71 -1.0229615923308 0.79349489242304 -0.32219103226089 11.072850825381
1114	43715317 2425 624861 651094 192.9 200 72 13.821184553049 13.926654416061 999.04270985517 13862.378588124
1112	43717742 1809 624528 651094 192.8 200 73 213.25 213.25 15567.25 3319716.0625
1111	43719551 2442 624528 651094 192.8 200 73 897.95 996.46507476097 69096.781835109 65464493.981904
1088	43721993 155 615303 644679 190.254180730376 198.254206643696 5 1 1 5 5
1071	43722148 93 601005 615315 186.254206784084 190.254206643696 3 1 3 6 14
636	43722241 17279 443279 651094 141.3 200 588 0.973 5.6543346117377 1485.2076473607 4798.750909654
635	43739520 18978 443279 651094 141.3 200 588 -3.7689965930767 1.5 -39.67228173825 1589.1197026096
383	43758498 19111 443279 651094 141.3 200 588 0 11.414566998711 4022.6473696197 32229.939652843
243	43777609 19196 443279 651094 141.3 200 588 913.0342623286 1313.6389992906 662483.56418709 755330330.26825
242	43796805 15564 443279 651094 141.3 200 588 586.75 590.02674404211 345268.5885965 202739272.33506
1080	43812369 154 607764 645062 188.175927284309 198.373987704948 5 1 1 5 5
1089	43812523 154 615349 645414 190.285999664702 198.454331762646 5 1 5 15 55
640	43812677 17700 443279 651094 141.3 200 588 0.973 5.4983711391173 1520.3708605028 4761.318621144
639	43830377 19001 443279 651094 141.3 200 588 -3.9820133326901 1.5 32.728179743278 1478.3075348288
385	43849378 19218 443279 651094 141.3 200 588 3.2076094822812 10.991863023268 4264.1698294935 33544.335250704
247	43868596 19213 443279 651094 141.3 200 588 1068.740852456 1492.3757108455 751783.10361155 970064380.24446
246	43887809 16207 443279 651094 141.3 200 588 2799.9571978763 2803.25 1647995.5429627 4618859951.4811
805	43904016 749 458048 644678 145.554215259352 198.254164679405 25 1 1 25 25
809	43904765 495 444368 600992 141.554241329408 186.254164679405 16 27 42 552 19384
751	43905260 17602 443279 651094 141.3 200 588 0.973 5.3893111316772 1368.5226093422 3931.7167420424
750	43922862 19112 443279 651094 141.3 200 588 -3.9828649267754 1.5 24.322989200109 1334.2125365966
749	43941974 19179 443279 651094 141.3 200 588 0 10.907186848771 3644.1072480807 26819.991848508
748	43961153 19226 443279 651094 141.3 200 588 822.98995908176 1184.9192320723 577953.18897005 575676674.92731
747	43980379 16239 443279 651094 141.3 200 588 1136.75 1140.05 668725.3243562 760533862.244
642	43996618 17754 443279 651094 141.3 200 588 0.973 5.4407788799072 1487.739340494 4545.4819623053
641	44014372 19023 443279 651094 141.3 200 588 -4 1.5 17.405041290578 1431.1374234473
386	44033395 19217 443279 651094 141.3 200 588 3.1440283188788 10.978412279817 4246.1151637498 33305.604275711
249	44052612 19219 443279 651094 141.3 200 588 241.50979313456 663.45621818763 266463.72023788 129187944.69607
248	44071831 15627 443279 651094 141.3 200 588 874.95 878.25 516018.45073582 452849491.58361
771	44087458 686 443615 649058 141.35430219702 199.454125491952 23 1 1 23 23
773	44088144 927 464542 591164 147.454412972446 183.454125491952 30 9 38 705 18815
644	44089071 17640 443279 651094 141.3 200 588 0.973 5.5197221474329 1498.243445364 4636.0871771552
643	44106711 18889 443279 651094 141.3 200 588 -3.9188213167066 1.5 7.889750898177 1534.5428315609
387	44125600 19240 443279 651094 141.3 200 588 3.1676654541097 11.082937974096 4188.7310879944 32641.235131571
251	44144840 19182 443279 651094 141.3 200 588 904.92150590427 1316.75 654060.23418506 736433525.22512
250	44164022 16111 443279 651094 141.3 200 588 1405.7322742522 1415.0396854146 830340.86223208 1172561821.6472
1091	44180133 155 617492 647265 190.854235219464 198.954136017648 5 1 1 5 5
1086	44180288 93 610307 617914 188.854235219464 190.954136017648 3 1 3 6 14
648	44180381 17720 443279 651094 141.3 200 588 0.973 5.398499165521 1513.992761868 4715.5745479967
647	44198101 18911 443279 651094 141.3 200 588 -3.9166485608719 1.5 39.561971209696 1490.5039069248
389	44217012 19210 443279 651094 141.3 200 588 3.2438121615385 11.097270900486 4209.0559718944 32827.325499307
255	44236222 19223 443279 651094 141.3 200 588 1081.9465435719 1500.2648163224 758821.15149533 988186557.16053
254	44255445 16191 443279 651094 141.3 200 588 1974.9590724907 1978.25 1162923.9150377 2299986972.4696
981	44271636 358 555743 644018 173.470443522787 198.054254837824 12 1 1 12 12
1008	44271994 372 570376 636688 177.554368371323 196.054254837824 12 1 12 78 650
969	44272366 8181 549734 651094 171.8 200 283 0.973 6.1451634026166 609.8149935028 1736.1429657896
968	44280547 9333 549734 651094 171.8 200 283 -4 1.5 -95.904210500613 595.2381063809
966	44289880 9288 549333 651094 171.7 200 284 3.1918579913489 14.579429665777 2964.6192215642 36062.897455255
964	44299168 7640 548967 651094 171.6 200 285 693.25 753.8692065415 200528.934571 141191851.58693
963	44306808 8623 548967 651094 171.6 200 285 2275.2 2511.7668371346 695886.16503472 1700880867.102
794	44315431 848 445703 646104 141.98052265821 198.698670979147 29 1 1 29 29
795	44316279 216 445732 609583 141.997877392708 188.698670979147 7 21 27 168 4060
652	44316495 17744 443279 651094 141.3 200 588 0.973 6.4886517785309 1539.5769519165 5089.4563955416
651	44334239 19446 443279 651094 141.3 200 588 -3.7678985919772 1.5 39.968834537487 966.606661665
391	44353685 19215 443279 651094 141.3 200 588 3.2295303564522 13.566810103075 5920.3455332001 66666.182039021
259	44372900 15575 443279 651094 141.3 200 588 1225.4595947918 1253.25 735520.88151741 920067720.14698
258	44388475 19053 443279 651094 141.3 200 588 1418.35 1992.6536250251 998494.80903883 1714898007.7399
654	44407528 17727 443279 651094 141.3 200 588 0.973 5.3512081713846 1518.3142653995 4760.7188938127
653	44425255 19026 443279 651094 141.3 200 588 -3.892454705467 1.5 27.186001899272 1461.7770912543
392	44444281 19218 443279 651094 141.3 200 588 3.1652481184194 11.226692139757 4273.4771230229 33713.406756089
261	44463499 19226 443279 651094 141.3 200 588 1170.054871625 1594.8034964483 815459.08279574 1139637810.4992
260	44482725 16078 443279 651094 141.3 200 588 2786.75 2790.0329807184 1638905.0428984 4568044346.6164

